<?xml version="1.0" encoding="UTF-8"?>

<!-- generated on 2023-05-12 00:06:57 by Eclipse SUMO duarouter Version 1.17.0
<configuration xmlns:xsi="http://www.w3.org/2001/XMLSchema-instance" xsi:noNamespaceSchemaLocation="http://sumo.dlr.de/xsd/duarouterConfiguration.xsd">

    <input>
        <net-file value="intersection_edited.net.xml"/>
        <route-files value="trips.trips.xml"/>
    </input>

    <output>
        <output-file value="intersection_edited.rou.xml"/>
    </output>

    <time>
        <begin value="0"/>
        <end value="500"/>
    </time>

    <report>
        <no-warnings value="true"/>
        <ignore-errors value="true"/>
        <no-step-log value="true"/>
    </report>

</configuration>
-->

<routes xmlns:xsi="http://www.w3.org/2001/XMLSchema-instance" xsi:noNamespaceSchemaLocation="http://sumo.dlr.de/xsd/routes_file.xsd">
    <vehicle id="1" depart="1.00">
        <route edges="-E3 E2"/>
    </vehicle>
    <vehicle id="3" depart="3.00">
        <route edges="-E5 E2"/>
    </vehicle>
    <vehicle id="4" depart="4.00">
        <route edges="-E3 E2"/>
    </vehicle>
    <vehicle id="5" depart="5.00">
        <route edges="-E2 E4"/>
    </vehicle>
    <vehicle id="8" depart="8.00">
        <route edges="-E2 E4"/>
    </vehicle>
    <vehicle id="9" depart="9.00">
        <route edges="-E5 E2"/>
    </vehicle>
    <vehicle id="11" depart="11.00">
        <route edges="-E3 E2"/>
    </vehicle>
    <vehicle id="12" depart="12.00">
        <route edges="-E5 E3"/>
    </vehicle>
    <vehicle id="16" depart="16.00">
        <route edges="-E4 E5"/>
    </vehicle>
    <vehicle id="17" depart="17.00">
        <route edges="-E3 E4"/>
    </vehicle>
    <vehicle id="24" depart="24.00">
        <route edges="-E4 E3"/>
    </vehicle>
    <vehicle id="25" depart="25.00">
        <route edges="-E3 E2"/>
    </vehicle>
    <vehicle id="28" depart="28.00">
        <route edges="-E2 E4"/>
    </vehicle>
    <vehicle id="35" depart="35.00">
        <route edges="-E2 E5"/>
    </vehicle>
    <vehicle id="36" depart="36.00">
        <route edges="-E5 E3"/>
    </vehicle>
    <vehicle id="37" depart="37.00">
        <route edges="-E4 E3"/>
    </vehicle>
    <vehicle id="38" depart="38.00">
        <route edges="-E5 E3"/>
    </vehicle>
    <vehicle id="39" depart="39.00">
        <route edges="-E3 E2"/>
    </vehicle>
    <vehicle id="40" depart="40.00">
        <route edges="-E4 E3"/>
    </vehicle>
    <vehicle id="41" depart="41.00">
        <route edges="-E4 E5"/>
    </vehicle>
    <vehicle id="42" depart="42.00">
        <route edges="-E3 E2"/>
    </vehicle>
    <vehicle id="45" depart="45.00">
        <route edges="-E2 E4"/>
    </vehicle>
    <vehicle id="46" depart="46.00">
        <route edges="-E5 E3"/>
    </vehicle>
    <vehicle id="50" depart="50.00">
        <route edges="-E2 E4"/>
    </vehicle>
    <vehicle id="52" depart="52.00">
        <route edges="-E3 E4"/>
    </vehicle>
    <vehicle id="55" depart="55.00">
        <route edges="-E5 E3"/>
    </vehicle>
    <vehicle id="58" depart="58.00">
        <route edges="-E3 E4"/>
    </vehicle>
    <vehicle id="63" depart="63.00">
        <route edges="-E2 E5"/>
    </vehicle>
    <vehicle id="65" depart="65.00">
        <route edges="-E3 E2"/>
    </vehicle>
    <vehicle id="68" depart="68.00">
        <route edges="-E2 E5"/>
    </vehicle>
    <vehicle id="69" depart="69.00">
        <route edges="-E5 E2"/>
    </vehicle>
    <vehicle id="70" depart="70.00">
        <route edges="-E3 E4"/>
    </vehicle>
    <vehicle id="72" depart="72.00">
        <route edges="-E3 E2"/>
    </vehicle>
    <vehicle id="76" depart="76.00">
        <route edges="-E3 E4"/>
    </vehicle>
    <vehicle id="78" depart="78.00">
        <route edges="-E3 E4"/>
    </vehicle>
    <vehicle id="80" depart="80.00">
        <route edges="-E2 E4"/>
    </vehicle>
    <vehicle id="81" depart="81.00">
        <route edges="-E2 E5"/>
    </vehicle>
    <vehicle id="82" depart="82.00">
        <route edges="-E5 E2"/>
    </vehicle>
    <vehicle id="83" depart="83.00">
        <route edges="-E2 E4"/>
    </vehicle>
    <vehicle id="87" depart="87.00">
        <route edges="-E5 E2"/>
    </vehicle>
    <vehicle id="91" depart="91.00">
        <route edges="-E5 E2"/>
    </vehicle>
    <vehicle id="93" depart="93.00">
        <route edges="-E5 E2"/>
    </vehicle>
    <vehicle id="96" depart="96.00">
        <route edges="-E2 E5"/>
    </vehicle>
    <vehicle id="101" depart="101.00">
        <route edges="-E5 E2"/>
    </vehicle>
    <vehicle id="102" depart="102.00">
        <route edges="-E3 E2"/>
    </vehicle>
    <vehicle id="103" depart="103.00">
        <route edges="-E3 E2"/>
    </vehicle>
    <vehicle id="112" depart="112.00">
        <route edges="-E2 E4"/>
    </vehicle>
    <vehicle id="113" depart="113.00">
        <route edges="-E4 E5"/>
    </vehicle>
    <vehicle id="114" depart="114.00">
        <route edges="-E2 E5"/>
    </vehicle>
    <vehicle id="118" depart="118.00">
        <route edges="-E5 E2"/>
    </vehicle>
    <vehicle id="120" depart="120.00">
        <route edges="-E3 E4"/>
    </vehicle>
    <vehicle id="121" depart="121.00">
        <route edges="-E4 E5"/>
    </vehicle>
    <vehicle id="122" depart="122.00">
        <route edges="-E2 E4"/>
    </vehicle>
    <vehicle id="124" depart="124.00">
        <route edges="-E4 E3"/>
    </vehicle>
    <vehicle id="131" depart="131.00">
        <route edges="-E3 E2"/>
    </vehicle>
    <vehicle id="133" depart="133.00">
        <route edges="-E4 E5"/>
    </vehicle>
    <vehicle id="135" depart="135.00">
        <route edges="-E5 E3"/>
    </vehicle>
    <vehicle id="136" depart="136.00">
        <route edges="-E4 E5"/>
    </vehicle>
    <vehicle id="138" depart="138.00">
        <route edges="-E2 E4"/>
    </vehicle>
    <vehicle id="139" depart="139.00">
        <route edges="-E3 E4"/>
    </vehicle>
    <vehicle id="141" depart="141.00">
        <route edges="-E4 E3"/>
    </vehicle>
    <vehicle id="143" depart="143.00">
        <route edges="-E5 E2"/>
    </vehicle>
    <vehicle id="145" depart="145.00">
        <route edges="-E2 E5"/>
    </vehicle>
    <vehicle id="146" depart="146.00">
        <route edges="-E4 E3"/>
    </vehicle>
    <vehicle id="148" depart="148.00">
        <route edges="-E3 E2"/>
    </vehicle>
    <vehicle id="149" depart="149.00">
        <route edges="-E2 E5"/>
    </vehicle>
    <vehicle id="155" depart="155.00">
        <route edges="-E5 E2"/>
    </vehicle>
    <vehicle id="158" depart="158.00">
        <route edges="-E3 E4"/>
    </vehicle>
    <vehicle id="159" depart="159.00">
        <route edges="-E2 E5"/>
    </vehicle>
    <vehicle id="162" depart="162.00">
        <route edges="-E2 E4"/>
    </vehicle>
    <vehicle id="165" depart="165.00">
        <route edges="-E5 E3"/>
    </vehicle>
    <vehicle id="166" depart="166.00">
        <route edges="-E5 E2"/>
    </vehicle>
    <vehicle id="168" depart="168.00">
        <route edges="-E2 E5"/>
    </vehicle>
    <vehicle id="170" depart="170.00">
        <route edges="-E5 E2"/>
    </vehicle>
    <vehicle id="173" depart="173.00">
        <route edges="-E5 E3"/>
    </vehicle>
    <vehicle id="174" depart="174.00">
        <route edges="-E4 E3"/>
    </vehicle>
    <vehicle id="176" depart="176.00">
        <route edges="-E5 E2"/>
    </vehicle>
    <vehicle id="177" depart="177.00">
        <route edges="-E5 E2"/>
    </vehicle>
    <vehicle id="178" depart="178.00">
        <route edges="-E5 E3"/>
    </vehicle>
    <vehicle id="180" depart="180.00">
        <route edges="-E4 E3"/>
    </vehicle>
    <vehicle id="182" depart="182.00">
        <route edges="-E3 E4"/>
    </vehicle>
    <vehicle id="183" depart="183.00">
        <route edges="-E3 E4"/>
    </vehicle>
    <vehicle id="184" depart="184.00">
        <route edges="-E2 E5"/>
    </vehicle>
    <vehicle id="187" depart="187.00">
        <route edges="-E3 E2"/>
    </vehicle>
    <vehicle id="188" depart="188.00">
        <route edges="-E4 E3"/>
    </vehicle>
    <vehicle id="190" depart="190.00">
        <route edges="-E4 E3"/>
    </vehicle>
    <vehicle id="196" depart="196.00">
        <route edges="-E3 E4"/>
    </vehicle>
    <vehicle id="198" depart="198.00">
        <route edges="-E3 E4"/>
    </vehicle>
    <vehicle id="199" depart="199.00">
        <route edges="-E4 E3"/>
    </vehicle>
    <vehicle id="200" depart="200.00">
        <route edges="-E3 E2"/>
    </vehicle>
    <vehicle id="202" depart="202.00">
        <route edges="-E5 E2"/>
    </vehicle>
    <vehicle id="203" depart="203.00">
        <route edges="-E2 E4"/>
    </vehicle>
    <vehicle id="204" depart="204.00">
        <route edges="-E4 E3"/>
    </vehicle>
    <vehicle id="209" depart="209.00">
        <route edges="-E5 E2"/>
    </vehicle>
    <vehicle id="210" depart="210.00">
        <route edges="-E3 E4"/>
    </vehicle>
    <vehicle id="211" depart="211.00">
        <route edges="-E2 E4"/>
    </vehicle>
    <vehicle id="212" depart="212.00">
        <route edges="-E3 E2"/>
    </vehicle>
    <vehicle id="216" depart="216.00">
        <route edges="-E2 E5"/>
    </vehicle>
    <vehicle id="218" depart="218.00">
        <route edges="-E2 E5"/>
    </vehicle>
    <vehicle id="220" depart="220.00">
        <route edges="-E4 E5"/>
    </vehicle>
    <vehicle id="221" depart="221.00">
        <route edges="-E4 E5"/>
    </vehicle>
    <vehicle id="227" depart="227.00">
        <route edges="-E2 E4"/>
    </vehicle>
    <vehicle id="229" depart="229.00">
        <route edges="-E4 E3"/>
    </vehicle>
    <vehicle id="233" depart="233.00">
        <route edges="-E2 E4"/>
    </vehicle>
    <vehicle id="235" depart="235.00">
        <route edges="-E3 E4"/>
    </vehicle>
    <vehicle id="236" depart="236.00">
        <route edges="-E3 E2"/>
    </vehicle>
    <vehicle id="240" depart="240.00">
        <route edges="-E3 E2"/>
    </vehicle>
    <vehicle id="243" depart="243.00">
        <route edges="-E3 E4"/>
    </vehicle>
    <vehicle id="246" depart="246.00">
        <route edges="-E3 E2"/>
    </vehicle>
    <vehicle id="247" depart="247.00">
        <route edges="-E3 E4"/>
    </vehicle>
    <vehicle id="248" depart="248.00">
        <route edges="-E3 E2"/>
    </vehicle>
    <vehicle id="249" depart="249.00">
        <route edges="-E3 E2"/>
    </vehicle>
    <vehicle id="251" depart="251.00">
        <route edges="-E3 E4"/>
    </vehicle>
    <vehicle id="252" depart="252.00">
        <route edges="-E2 E4"/>
    </vehicle>
    <vehicle id="256" depart="256.00">
        <route edges="-E5 E3"/>
    </vehicle>
    <vehicle id="258" depart="258.00">
        <route edges="-E3 E2"/>
    </vehicle>
    <vehicle id="259" depart="259.00">
        <route edges="-E2 E4"/>
    </vehicle>
    <vehicle id="260" depart="260.00">
        <route edges="-E5 E3"/>
    </vehicle>
    <vehicle id="261" depart="261.00">
        <route edges="-E4 E5"/>
    </vehicle>
    <vehicle id="262" depart="262.00">
        <route edges="-E4 E5"/>
    </vehicle>
    <vehicle id="263" depart="263.00">
        <route edges="-E5 E2"/>
    </vehicle>
    <vehicle id="265" depart="265.00">
        <route edges="-E2 E4"/>
    </vehicle>
    <vehicle id="267" depart="267.00">
        <route edges="-E4 E5"/>
    </vehicle>
    <vehicle id="268" depart="268.00">
        <route edges="-E2 E4"/>
    </vehicle>
    <vehicle id="272" depart="272.00">
        <route edges="-E3 E4"/>
    </vehicle>
    <vehicle id="273" depart="273.00">
        <route edges="-E5 E3"/>
    </vehicle>
    <vehicle id="276" depart="276.00">
        <route edges="-E2 E5"/>
    </vehicle>
    <vehicle id="278" depart="278.00">
        <route edges="-E2 E5"/>
    </vehicle>
    <vehicle id="279" depart="279.00">
        <route edges="-E5 E3"/>
    </vehicle>
    <vehicle id="281" depart="281.00">
        <route edges="-E4 E3"/>
    </vehicle>
    <vehicle id="283" depart="283.00">
        <route edges="-E2 E5"/>
    </vehicle>
    <vehicle id="284" depart="284.00">
        <route edges="-E4 E5"/>
    </vehicle>
    <vehicle id="285" depart="285.00">
        <route edges="-E4 E3"/>
    </vehicle>
    <vehicle id="286" depart="286.00">
        <route edges="-E4 E5"/>
    </vehicle>
    <vehicle id="288" depart="288.00">
        <route edges="-E4 E3"/>
    </vehicle>
    <vehicle id="289" depart="289.00">
        <route edges="-E3 E4"/>
    </vehicle>
    <vehicle id="291" depart="291.00">
        <route edges="-E5 E2"/>
    </vehicle>
    <vehicle id="292" depart="292.00">
        <route edges="-E5 E2"/>
    </vehicle>
    <vehicle id="293" depart="293.00">
        <route edges="-E3 E4"/>
    </vehicle>
    <vehicle id="294" depart="294.00">
        <route edges="-E3 E2"/>
    </vehicle>
    <vehicle id="295" depart="295.00">
        <route edges="-E5 E2"/>
    </vehicle>
    <vehicle id="296" depart="296.00">
        <route edges="-E2 E5"/>
    </vehicle>
    <vehicle id="298" depart="298.00">
        <route edges="-E4 E3"/>
    </vehicle>
    <vehicle id="299" depart="299.00">
        <route edges="-E2 E5"/>
    </vehicle>
    <vehicle id="300" depart="300.00">
        <route edges="-E2 E4"/>
    </vehicle>
    <vehicle id="305" depart="305.00">
        <route edges="-E4 E3"/>
    </vehicle>
    <vehicle id="306" depart="306.00">
        <route edges="-E4 E3"/>
    </vehicle>
    <vehicle id="307" depart="307.00">
        <route edges="-E4 E3"/>
    </vehicle>
    <vehicle id="308" depart="308.00">
        <route edges="-E4 E3"/>
    </vehicle>
    <vehicle id="309" depart="309.00">
        <route edges="-E4 E3"/>
    </vehicle>
    <vehicle id="310" depart="310.00">
        <route edges="-E3 E2"/>
    </vehicle>
    <vehicle id="312" depart="312.00">
        <route edges="-E4 E5"/>
    </vehicle>
    <vehicle id="314" depart="314.00">
        <route edges="-E3 E4"/>
    </vehicle>
    <vehicle id="316" depart="316.00">
        <route edges="-E3 E2"/>
    </vehicle>
    <vehicle id="319" depart="319.00">
        <route edges="-E4 E3"/>
    </vehicle>
    <vehicle id="322" depart="322.00">
        <route edges="-E5 E3"/>
    </vehicle>
    <vehicle id="326" depart="326.00">
        <route edges="-E5 E3"/>
    </vehicle>
    <vehicle id="327" depart="327.00">
        <route edges="-E5 E3"/>
    </vehicle>
    <vehicle id="328" depart="328.00">
        <route edges="-E2 E4"/>
    </vehicle>
    <vehicle id="330" depart="330.00">
        <route edges="-E4 E3"/>
    </vehicle>
    <vehicle id="331" depart="331.00">
        <route edges="-E5 E2"/>
    </vehicle>
    <vehicle id="333" depart="333.00">
        <route edges="-E5 E2"/>
    </vehicle>
    <vehicle id="334" depart="334.00">
        <route edges="-E4 E3"/>
    </vehicle>
    <vehicle id="336" depart="336.00">
        <route edges="-E5 E3"/>
    </vehicle>
    <vehicle id="338" depart="338.00">
        <route edges="-E4 E5"/>
    </vehicle>
    <vehicle id="343" depart="343.00">
        <route edges="-E4 E3"/>
    </vehicle>
    <vehicle id="344" depart="344.00">
        <route edges="-E2 E4"/>
    </vehicle>
    <vehicle id="345" depart="345.00">
        <route edges="-E4 E3"/>
    </vehicle>
    <vehicle id="346" depart="346.00">
        <route edges="-E4 E5"/>
    </vehicle>
    <vehicle id="348" depart="348.00">
        <route edges="-E4 E5"/>
    </vehicle>
    <vehicle id="349" depart="349.00">
        <route edges="-E3 E4"/>
    </vehicle>
    <vehicle id="350" depart="350.00">
        <route edges="-E4 E5"/>
    </vehicle>
    <vehicle id="351" depart="351.00">
        <route edges="-E5 E2"/>
    </vehicle>
    <vehicle id="354" depart="354.00">
        <route edges="-E3 E2"/>
    </vehicle>
    <vehicle id="357" depart="357.00">
        <route edges="-E3 E2"/>
    </vehicle>
    <vehicle id="360" depart="360.00">
        <route edges="-E2 E5"/>
    </vehicle>
    <vehicle id="363" depart="363.00">
        <route edges="-E4 E3"/>
    </vehicle>
    <vehicle id="364" depart="364.00">
        <route edges="-E2 E5"/>
    </vehicle>
    <vehicle id="365" depart="365.00">
        <route edges="-E3 E4"/>
    </vehicle>
    <vehicle id="366" depart="366.00">
        <route edges="-E5 E2"/>
    </vehicle>
    <vehicle id="368" depart="368.00">
        <route edges="-E3 E2"/>
    </vehicle>
    <vehicle id="370" depart="370.00">
        <route edges="-E4 E5"/>
    </vehicle>
    <vehicle id="371" depart="371.00">
        <route edges="-E3 E4"/>
    </vehicle>
    <vehicle id="376" depart="376.00">
        <route edges="-E3 E4"/>
    </vehicle>
    <vehicle id="378" depart="378.00">
        <route edges="-E4 E3"/>
    </vehicle>
    <vehicle id="381" depart="381.00">
        <route edges="-E5 E2"/>
    </vehicle>
    <vehicle id="382" depart="382.00">
        <route edges="-E4 E5"/>
    </vehicle>
    <vehicle id="383" depart="383.00">
        <route edges="-E3 E4"/>
    </vehicle>
    <vehicle id="384" depart="384.00">
        <route edges="-E2 E5"/>
    </vehicle>
    <vehicle id="386" depart="386.00">
        <route edges="-E2 E4"/>
    </vehicle>
    <vehicle id="389" depart="389.00">
        <route edges="-E3 E2"/>
    </vehicle>
    <vehicle id="390" depart="390.00">
        <route edges="-E5 E3"/>
    </vehicle>
    <vehicle id="393" depart="393.00">
        <route edges="-E5 E2"/>
    </vehicle>
    <vehicle id="394" depart="394.00">
        <route edges="-E4 E3"/>
    </vehicle>
    <vehicle id="399" depart="399.00">
        <route edges="-E4 E5"/>
    </vehicle>
    <vehicle id="401" depart="401.00">
        <route edges="-E4 E5"/>
    </vehicle>
    <vehicle id="402" depart="402.00">
        <route edges="-E3 E2"/>
    </vehicle>
    <vehicle id="403" depart="403.00">
        <route edges="-E4 E3"/>
    </vehicle>
    <vehicle id="406" depart="406.00">
        <route edges="-E2 E4"/>
    </vehicle>
    <vehicle id="408" depart="408.00">
        <route edges="-E5 E2"/>
    </vehicle>
    <vehicle id="410" depart="410.00">
        <route edges="-E5 E3"/>
    </vehicle>
    <vehicle id="411" depart="411.00">
        <route edges="-E4 E5"/>
    </vehicle>
    <vehicle id="412" depart="412.00">
        <route edges="-E5 E3"/>
    </vehicle>
    <vehicle id="413" depart="413.00">
        <route edges="-E2 E4"/>
    </vehicle>
    <vehicle id="414" depart="414.00">
        <route edges="-E4 E5"/>
    </vehicle>
    <vehicle id="415" depart="415.00">
        <route edges="-E5 E3"/>
    </vehicle>
    <vehicle id="416" depart="416.00">
        <route edges="-E4 E3"/>
    </vehicle>
    <vehicle id="417" depart="417.00">
        <route edges="-E4 E3"/>
    </vehicle>
    <vehicle id="420" depart="420.00">
        <route edges="-E3 E4"/>
    </vehicle>
    <vehicle id="421" depart="421.00">
        <route edges="-E4 E5"/>
    </vehicle>
    <vehicle id="424" depart="424.00">
        <route edges="-E4 E5"/>
    </vehicle>
    <vehicle id="425" depart="425.00">
        <route edges="-E5 E2"/>
    </vehicle>
    <vehicle id="426" depart="426.00">
        <route edges="-E2 E4"/>
    </vehicle>
    <vehicle id="428" depart="428.00">
        <route edges="-E4 E3"/>
    </vehicle>
    <vehicle id="429" depart="429.00">
        <route edges="-E2 E4"/>
    </vehicle>
    <vehicle id="430" depart="430.00">
        <route edges="-E5 E3"/>
    </vehicle>
    <vehicle id="431" depart="431.00">
        <route edges="-E4 E5"/>
    </vehicle>
    <vehicle id="432" depart="432.00">
        <route edges="-E2 E5"/>
    </vehicle>
    <vehicle id="434" depart="434.00">
        <route edges="-E2 E4"/>
    </vehicle>
    <vehicle id="435" depart="435.00">
        <route edges="-E4 E5"/>
    </vehicle>
    <vehicle id="438" depart="438.00">
        <route edges="-E2 E5"/>
    </vehicle>
    <vehicle id="441" depart="441.00">
        <route edges="-E2 E5"/>
    </vehicle>
    <vehicle id="444" depart="444.00">
        <route edges="-E3 E4"/>
    </vehicle>
    <vehicle id="445" depart="445.00">
        <route edges="-E4 E3"/>
    </vehicle>
    <vehicle id="448" depart="448.00">
        <route edges="-E3 E2"/>
    </vehicle>
    <vehicle id="450" depart="450.00">
        <route edges="-E5 E3"/>
    </vehicle>
    <vehicle id="452" depart="452.00">
        <route edges="-E3 E4"/>
    </vehicle>
    <vehicle id="454" depart="454.00">
        <route edges="-E2 E4"/>
    </vehicle>
    <vehicle id="457" depart="457.00">
        <route edges="-E4 E3"/>
    </vehicle>
    <vehicle id="460" depart="460.00">
        <route edges="-E4 E5"/>
    </vehicle>
    <vehicle id="461" depart="461.00">
        <route edges="-E4 E5"/>
    </vehicle>
    <vehicle id="462" depart="462.00">
        <route edges="-E4 E3"/>
    </vehicle>
    <vehicle id="463" depart="463.00">
        <route edges="-E3 E4"/>
    </vehicle>
    <vehicle id="465" depart="465.00">
        <route edges="-E3 E4"/>
    </vehicle>
    <vehicle id="467" depart="467.00">
        <route edges="-E4 E5"/>
    </vehicle>
    <vehicle id="468" depart="468.00">
        <route edges="-E4 E5"/>
    </vehicle>
    <vehicle id="469" depart="469.00">
        <route edges="-E5 E3"/>
    </vehicle>
    <vehicle id="470" depart="470.00">
        <route edges="-E5 E3"/>
    </vehicle>
    <vehicle id="472" depart="472.00">
        <route edges="-E3 E2"/>
    </vehicle>
    <vehicle id="473" depart="473.00">
        <route edges="-E5 E2"/>
    </vehicle>
    <vehicle id="475" depart="475.00">
        <route edges="-E4 E5"/>
    </vehicle>
    <vehicle id="478" depart="478.00">
        <route edges="-E2 E4"/>
    </vehicle>
    <vehicle id="479" depart="479.00">
        <route edges="-E3 E4"/>
    </vehicle>
    <vehicle id="483" depart="483.00">
        <route edges="-E2 E5"/>
    </vehicle>
    <vehicle id="484" depart="484.00">
        <route edges="-E4 E5"/>
    </vehicle>
    <vehicle id="488" depart="488.00">
        <route edges="-E2 E5"/>
    </vehicle>
    <vehicle id="490" depart="490.00">
        <route edges="-E2 E5"/>
    </vehicle>
    <vehicle id="493" depart="493.00">
        <route edges="-E5 E3"/>
    </vehicle>
    <vehicle id="495" depart="495.00">
        <route edges="-E3 E2"/>
    </vehicle>
    <vehicle id="497" depart="497.00">
        <route edges="-E5 E2"/>
    </vehicle>
</routes>
