<?xml version="1.0" encoding="UTF-8"?>

<!-- generated on 2023-05-12 00:06:15 by Eclipse SUMO netedit Version 1.17.0
<configuration xmlns:xsi="http://www.w3.org/2001/XMLSchema-instance" xsi:noNamespaceSchemaLocation="http://sumo.dlr.de/xsd/netconvertConfiguration.xsd">

    <input>
        <additional-files value="/Users/serenazhang/Documents/traffic/Dynamic-Traffic-light-management-system/maps/intersection_edited.add.xml"/>
        <sumo-net-file value="/Users/serenazhang/Documents/traffic/Dynamic-Traffic-light-management-system/maps/intersection_edited.net.xml"/>
    </input>

    <output>
        <output-file value="/Users/serenazhang/Documents/traffic/Dynamic-Traffic-light-management-system/maps/intersection_edited.net.xml"/>
    </output>

    <processing>
        <geometry.min-radius.fix.railways value="false"/>
        <geometry.max-grade.fix value="false"/>
        <offset.disable-normalization value="true"/>
        <lefthand value="0"/>
    </processing>

    <junctions>
        <no-turnarounds value="true"/>
        <junctions.corner-detail value="5"/>
        <junctions.limit-turn-speed value="5.50"/>
        <rectangular-lane-cut value="0"/>
    </junctions>

    <pedestrian>
        <walkingareas value="0"/>
    </pedestrian>

</configuration>
-->

<net version="1.16" junctionCornerDetail="5" limitTurnSpeed="5.50" xmlns:xsi="http://www.w3.org/2001/XMLSchema-instance" xsi:noNamespaceSchemaLocation="http://sumo.dlr.de/xsd/net_file.xsd">

    <location netOffset="0.00,0.00" convBoundary="-81.52,-10.57,93.40,137.08" origBoundary="-10000000000.00,-10000000000.00,10000000000.00,10000000000.00" projParameter="!"/>

    <edge id=":J0_0" function="internal">
        <lane id=":J0_0_0" index="0" speed="6.52" length="9.05" shape="-1.58,68.43 -1.94,65.98 -2.99,64.22 -4.75,63.17 -7.20,62.82"/>
    </edge>
    <edge id=":J0_1" function="internal">
        <lane id=":J0_1_0" index="0" speed="13.89" length="14.41" shape="-1.58,68.43 -1.60,54.02"/>
    </edge>
    <edge id=":J0_2" function="internal">
        <lane id=":J0_2_0" index="0" speed="6.50" length="9.03" shape="7.21,62.82 4.76,63.17 3.01,64.22 1.96,65.97 1.62,68.43"/>
    </edge>
    <edge id=":J0_3" function="internal">
        <lane id=":J0_3_0" index="0" speed="13.89" length="14.41" shape="7.21,62.82 -7.20,62.82"/>
    </edge>
    <edge id=":J0_4" function="internal">
        <lane id=":J0_4_0" index="0" speed="6.51" length="9.04" shape="1.60,54.02 1.95,56.47 3.00,58.22 4.76,59.27 7.21,59.62"/>
    </edge>
    <edge id=":J0_5" function="internal">
        <lane id=":J0_5_0" index="0" speed="13.89" length="14.40" shape="1.60,54.02 1.62,68.43"/>
    </edge>
    <edge id=":J0_6" function="internal">
        <lane id=":J0_6_0" index="0" speed="6.51" length="9.03" shape="-7.20,59.62 -4.75,59.27 -3.00,58.22 -1.95,56.47 -1.60,54.02"/>
    </edge>
    <edge id=":J0_7" function="internal">
        <lane id=":J0_7_0" index="0" speed="13.89" length="14.41" shape="-7.20,59.62 7.21,59.62"/>
    </edge>

    <edge id="-E2" from="J3" to="J0" priority="-1" length="75.00">
        <lane id="-E2_0" index="0" speed="13.89" length="75.00" shape="1.63,-10.57 1.60,54.02"/>
    </edge>
    <edge id="-E3" from="J4" to="J0" priority="-1" length="75.00">
        <lane id="-E3_0" index="0" speed="13.89" length="75.00" shape="-81.52,59.65 -7.20,59.62"/>
    </edge>
    <edge id="-E4" from="J5" to="J0" priority="-1" length="75.00">
        <lane id="-E4_0" index="0" speed="13.89" length="75.00" shape="93.40,62.85 7.21,62.82"/>
    </edge>
    <edge id="-E5" from="J6" to="J0" priority="-1" spreadType="roadCenter" length="75.00">
        <lane id="-E5_0" index="0" speed="13.89" length="75.00" shape="-1.40,137.08 -1.58,68.43"/>
    </edge>
    <edge id="E2" from="J0" to="J3" priority="-1" length="75.00">
        <lane id="E2_0" index="0" speed="13.89" length="75.00" shape="-1.60,54.02 -1.57,-10.57"/>
    </edge>
    <edge id="E3" from="J0" to="J4" priority="-1" length="75.00">
        <lane id="E3_0" index="0" speed="13.89" length="75.00" shape="-7.20,62.82 -81.52,62.85"/>
    </edge>
    <edge id="E4" from="J0" to="J5" priority="-1" length="75.00">
        <lane id="E4_0" index="0" speed="13.89" length="75.00" shape="7.21,59.62 93.40,59.65"/>
    </edge>
    <edge id="E5" from="J0" to="J6" priority="-1" length="75.00">
        <lane id="E5_0" index="0" speed="13.89" length="75.00" shape="1.62,68.43 1.80,137.08"/>
    </edge>

    <tlLogic id="J0" type="static" programID="0" offset="0">
        <phase duration="42" state="rrGGrrGG"/>
        <phase duration="3"  state="rryyrryy"/>
        <phase duration="42" state="GGrrGGrr"/>
        <phase duration="3"  state="yyrryyrr"/>
    </tlLogic>

    <junction id="J0" type="traffic_light" x="0.00" y="61.22" incLanes="-E5_0 -E4_0 -E2_0 -E3_0" intLanes=":J0_0_0 :J0_1_0 :J0_2_0 :J0_3_0 :J0_4_0 :J0_5_0 :J0_6_0 :J0_7_0" shape="-3.18,68.44 3.22,68.42 3.66,66.20 4.21,65.42 4.99,64.87 5.99,64.53 7.21,64.42 7.21,58.02 4.98,57.58 4.20,57.02 3.65,56.24 3.31,55.24 3.20,54.02 -3.20,54.02 -3.64,56.24 -4.20,57.02 -4.98,57.58 -5.98,57.91 -7.20,58.02 -7.20,64.42 -4.97,64.87 -4.19,65.43 -3.63,66.21 -3.30,67.21" fringe="outer">
        <request index="0" response="00001000" foes="00001000" cont="0"/>
        <request index="1" response="11001000" foes="11001000" cont="0"/>
        <request index="2" response="00000000" foes="00100000" cont="0"/>
        <request index="3" response="00000000" foes="00100011" cont="0"/>
        <request index="4" response="10000000" foes="10000000" cont="0"/>
        <request index="5" response="10001100" foes="10001100" cont="0"/>
        <request index="6" response="00000000" foes="00000010" cont="0"/>
        <request index="7" response="00000000" foes="00110010" cont="0"/>
    </junction>
    <junction id="J3" type="dead_end" x="0.03" y="-10.57" incLanes="E2_0" intLanes="" shape="0.03,-10.57 -3.17,-10.57 0.03,-10.57"/>
    <junction id="J4" type="dead_end" x="-81.52" y="61.25" incLanes="E3_0" intLanes="" shape="-81.52,61.25 -81.52,64.45 -81.52,61.25"/>
    <junction id="J5" type="dead_end" x="93.40" y="61.25" incLanes="E4_0" intLanes="" shape="93.40,61.25 93.40,58.05 93.40,61.25"/>
    <junction id="J6" type="dead_end" x="0.20" y="137.08" incLanes="E5_0" intLanes="" shape="0.20,137.08 3.40,137.07 0.20,137.08"/>

    <connection from="-E2" to="E4" fromLane="0" toLane="0" via=":J0_4_0" tl="J0" linkIndex="4" dir="r" state="o"/>
    <connection from="-E2" to="E5" fromLane="0" toLane="0" via=":J0_5_0" tl="J0" linkIndex="5" dir="s" state="o"/>
    <connection from="-E3" to="E2" fromLane="0" toLane="0" via=":J0_6_0" tl="J0" linkIndex="6" dir="r" state="O"/>
    <connection from="-E3" to="E4" fromLane="0" toLane="0" via=":J0_7_0" tl="J0" linkIndex="7" dir="s" state="O"/>
    <connection from="-E4" to="E5" fromLane="0" toLane="0" via=":J0_2_0" tl="J0" linkIndex="2" dir="r" state="O"/>
    <connection from="-E4" to="E3" fromLane="0" toLane="0" via=":J0_3_0" tl="J0" linkIndex="3" dir="s" state="O"/>
    <connection from="-E5" to="E3" fromLane="0" toLane="0" via=":J0_0_0" tl="J0" linkIndex="0" dir="r" state="o"/>
    <connection from="-E5" to="E2" fromLane="0" toLane="0" via=":J0_1_0" tl="J0" linkIndex="1" dir="s" state="o"/>

    <connection from=":J0_0" to="E3" fromLane="0" toLane="0" dir="r" state="M"/>
    <connection from=":J0_1" to="E2" fromLane="0" toLane="0" dir="s" state="M"/>
    <connection from=":J0_2" to="E5" fromLane="0" toLane="0" dir="r" state="M"/>
    <connection from=":J0_3" to="E3" fromLane="0" toLane="0" dir="s" state="M"/>
    <connection from=":J0_4" to="E4" fromLane="0" toLane="0" dir="r" state="M"/>
    <connection from=":J0_5" to="E5" fromLane="0" toLane="0" dir="s" state="M"/>
    <connection from=":J0_6" to="E2" fromLane="0" toLane="0" dir="r" state="M"/>
    <connection from=":J0_7" to="E4" fromLane="0" toLane="0" dir="s" state="M"/>

</net>
