<?xml version="1.0" encoding="UTF-8"?>

<!-- generated on 2023-06-10 15:22:35 by Eclipse SUMO netedit Version 1.17.0
<configuration xmlns:xsi="http://www.w3.org/2001/XMLSchema-instance" xsi:noNamespaceSchemaLocation="http://sumo.dlr.de/xsd/netconvertConfiguration.xsd">

    <input>
        <sumo-net-file value="/Users/serenazhang/Documents/traffic/traffic_rl/maps/intersection_3.net.xml"/>
    </input>

    <output>
        <output-file value="/Users/serenazhang/Documents/traffic/traffic_rl/maps/intersection_3.net.xml"/>
    </output>

    <processing>
        <geometry.min-radius.fix.railways value="false"/>
        <geometry.max-grade.fix value="false"/>
        <offset.disable-normalization value="true"/>
        <lefthand value="0"/>
    </processing>

    <junctions>
        <no-turnarounds value="true"/>
        <junctions.corner-detail value="5"/>
        <junctions.limit-turn-speed value="5.50"/>
        <rectangular-lane-cut value="0"/>
    </junctions>

    <pedestrian>
        <walkingareas value="0"/>
    </pedestrian>

</configuration>
-->

<net version="1.16" junctionCornerDetail="5" limitTurnSpeed="5.50" xmlns:xsi="http://www.w3.org/2001/XMLSchema-instance" xsi:noNamespaceSchemaLocation="http://sumo.dlr.de/xsd/net_file.xsd">

    <location netOffset="-604888.24,-4129160.70" convBoundary="0.00,0.00,1483.75,1854.15" origBoundary="-121.816323,37.303021,-121.799638,37.319799" projParameter="+proj=utm +zone=10 +ellps=WGS84 +datum=WGS84 +units=m +no_defs"/>

    <type id="highway.bridleway" priority="1" numLanes="1" speed="2.78" allow="pedestrian" oneway="1" width="2.00"/>
    <type id="highway.bus_guideway" priority="1" numLanes="1" speed="27.78" allow="bus" oneway="1"/>
    <type id="highway.cycleway" priority="1" numLanes="1" speed="5.56" allow="bicycle" oneway="0" width="1.00"/>
    <type id="highway.footway" priority="1" numLanes="1" speed="2.78" allow="pedestrian" oneway="1" width="2.00"/>
    <type id="highway.ford" priority="1" numLanes="1" speed="2.78" allow="army" oneway="0"/>
    <type id="highway.living_street" priority="2" numLanes="1" speed="2.78" disallow="tram rail_urban rail rail_electric rail_fast ship" oneway="0"/>
    <type id="highway.motorway" priority="14" numLanes="2" speed="39.44" allow="private emergency authority army vip passenger hov taxi bus coach delivery truck trailer motorcycle evehicle custom1 custom2" oneway="1"/>
    <type id="highway.motorway_link" priority="9" numLanes="1" speed="22.22" allow="private emergency authority army vip passenger hov taxi bus coach delivery truck trailer motorcycle evehicle custom1 custom2" oneway="1"/>
    <type id="highway.path" priority="1" numLanes="1" speed="5.56" allow="pedestrian bicycle" oneway="0" width="2.00"/>
    <type id="highway.pedestrian" priority="1" numLanes="1" speed="2.78" allow="pedestrian" oneway="1" width="2.00"/>
    <type id="highway.primary" priority="12" numLanes="2" speed="27.78" disallow="tram rail_urban rail rail_electric rail_fast ship" oneway="0"/>
    <type id="highway.primary_link" priority="7" numLanes="1" speed="22.22" disallow="tram rail_urban rail rail_electric rail_fast ship" oneway="0"/>
    <type id="highway.raceway" priority="15" numLanes="2" speed="83.33" allow="vip" oneway="0"/>
    <type id="highway.residential" priority="3" numLanes="1" speed="13.89" disallow="tram rail_urban rail rail_electric rail_fast ship" oneway="0"/>
    <type id="highway.secondary" priority="11" numLanes="1" speed="27.78" disallow="tram rail_urban rail rail_electric rail_fast ship" oneway="0"/>
    <type id="highway.secondary_link" priority="6" numLanes="1" speed="22.22" disallow="tram rail_urban rail rail_electric rail_fast ship" oneway="0"/>
    <type id="highway.service" priority="1" numLanes="1" speed="5.56" allow="pedestrian delivery bicycle" oneway="0"/>
    <type id="highway.stairs" priority="1" numLanes="1" speed="1.39" allow="pedestrian" oneway="1" width="2.00"/>
    <type id="highway.step" priority="1" numLanes="1" speed="1.39" allow="pedestrian" oneway="1" width="2.00"/>
    <type id="highway.steps" priority="1" numLanes="1" speed="1.39" allow="pedestrian" oneway="1" width="2.00"/>
    <type id="highway.tertiary" priority="10" numLanes="1" speed="22.22" disallow="tram rail_urban rail rail_electric rail_fast ship" oneway="0"/>
    <type id="highway.tertiary_link" priority="5" numLanes="1" speed="22.22" disallow="tram rail_urban rail rail_electric rail_fast ship" oneway="0"/>
    <type id="highway.track" priority="1" numLanes="1" speed="5.56" allow="pedestrian motorcycle moped bicycle" oneway="0"/>
    <type id="highway.trunk" priority="13" numLanes="2" speed="27.78" disallow="pedestrian bicycle tram rail_urban rail rail_electric rail_fast ship" oneway="0"/>
    <type id="highway.trunk_link" priority="8" numLanes="1" speed="22.22" disallow="pedestrian bicycle tram rail_urban rail rail_electric rail_fast ship" oneway="0"/>
    <type id="highway.unclassified" priority="4" numLanes="1" speed="13.89" disallow="tram rail_urban rail rail_electric rail_fast ship" oneway="0"/>
    <type id="highway.unsurfaced" priority="1" numLanes="1" speed="8.33" disallow="tram rail_urban rail rail_electric rail_fast ship" oneway="0"/>
    <type id="railway.highspeed" priority="21" numLanes="1" speed="69.44" allow="rail_fast" oneway="1"/>
    <type id="railway.light_rail" priority="19" numLanes="1" speed="27.78" allow="rail_urban" oneway="1"/>
    <type id="railway.preserved" priority="16" numLanes="1" speed="27.78" allow="rail" oneway="1"/>
    <type id="railway.rail" priority="20" numLanes="1" speed="44.44" allow="rail" oneway="1"/>
    <type id="railway.subway" priority="18" numLanes="1" speed="27.78" allow="rail_urban" oneway="1"/>
    <type id="railway.tram" priority="17" numLanes="1" speed="13.89" allow="tram" oneway="1"/>

    <edge id=":10186097398_0" function="internal">
        <lane id=":10186097398_0_0" index="0" disallow="tram rail_urban rail rail_electric rail_fast ship" speed="27.78" length="0.30" shape="382.60,863.85 382.31,863.76"/>
        <lane id=":10186097398_0_1" index="1" disallow="tram rail_urban rail rail_electric rail_fast ship" speed="27.78" length="0.30" shape="383.51,860.78 383.22,860.69"/>
    </edge>
    <edge id=":10186097399_0" function="internal">
        <lane id=":10186097399_0_0" index="0" disallow="tram rail_urban rail rail_electric rail_fast ship" speed="27.78" length="0.30" shape="559.48,885.57 559.77,885.63"/>
        <lane id=":10186097399_0_1" index="1" disallow="tram rail_urban rail rail_electric rail_fast ship" speed="27.78" length="0.30" shape="558.85,888.71 559.14,888.77"/>
    </edge>
    <edge id=":10199843048_0" function="internal">
        <lane id=":10199843048_0_0" index="0" disallow="tram rail_urban rail rail_electric rail_fast ship" speed="22.22" length="8.21" shape="1271.05,1066.48 1270.07,1068.68 1269.75,1070.35 1269.43,1072.01 1268.46,1074.22"/>
        <lane id=":10199843048_0_1" index="1" disallow="tram rail_urban rail rail_electric rail_fast ship" speed="22.22" length="8.21" shape="1271.05,1066.48 1269.64,1068.43 1268.37,1069.55 1267.09,1070.67 1265.68,1072.63"/>
    </edge>
    <edge id=":10199843049_0" function="internal">
        <lane id=":10199843049_0_0" index="0" disallow="tram rail_urban rail rail_electric rail_fast ship" speed="27.78" length="0.30" shape="1135.02,1007.62 1135.32,1007.64"/>
        <lane id=":10199843049_0_1" index="1" disallow="tram rail_urban rail rail_electric rail_fast ship" speed="27.78" length="0.30" shape="1134.77,1010.81 1135.07,1010.83"/>
        <lane id=":10199843049_0_2" index="2" disallow="tram rail_urban rail rail_electric rail_fast ship" speed="27.78" length="0.30" shape="1134.52,1014.00 1134.82,1014.02"/>
    </edge>
    <edge id=":10803707699_0" function="internal">
        <lane id=":10803707699_0_0" index="0" allow="pedestrian delivery bicycle" speed="5.56" length="0.10" shape="598.26,746.00 598.26,746.00"/>
    </edge>
    <edge id=":10803707700_0" function="internal">
        <lane id=":10803707700_0_0" index="0" allow="pedestrian delivery bicycle" speed="5.56" length="0.10" shape="604.07,743.30 604.07,743.30"/>
    </edge>
    <edge id=":1081555895_0" function="internal">
        <lane id=":1081555895_0_0" index="0" disallow="tram rail_urban rail rail_electric rail_fast ship" speed="5.41" length="7.43" shape="347.32,851.18 344.78,850.39 342.93,850.37 341.78,851.10 341.34,852.60"/>
    </edge>
    <edge id=":1081555895_1" function="internal">
        <lane id=":1081555895_1_0" index="0" disallow="tram rail_urban rail rail_electric rail_fast ship" speed="27.78" length="14.60" shape="347.32,851.18 333.84,845.29"/>
        <lane id=":1081555895_1_1" index="1" disallow="tram rail_urban rail rail_electric rail_fast ship" speed="27.78" length="14.60" shape="348.52,848.22 335.24,842.41"/>
    </edge>
    <edge id=":1081555895_3" function="internal">
        <lane id=":1081555895_3_0" index="0" disallow="tram rail_urban rail rail_electric rail_fast ship" speed="7.62" length="8.88" shape="338.14,852.43 337.97,850.14 337.20,848.18 335.82,846.56 333.84,845.29"/>
    </edge>
    <edge id=":1081555895_4" function="internal">
        <lane id=":1081555895_4_0" index="0" disallow="tram rail_urban rail rail_electric rail_fast ship" speed="3.65" length="4.67" shape="338.14,852.43 339.00,851.28 339.82,850.92 340.60,851.36 341.34,852.60"/>
    </edge>
    <edge id=":1081555900_0" function="internal">
        <lane id=":1081555900_0_0" index="0" disallow="pedestrian bicycle tram rail_urban rail rail_electric rail_fast ship" speed="3.51" length="2.48" shape="751.31,947.51 750.57,947.50 750.11,947.74 749.92,948.21 750.01,948.92"/>
        <lane id=":1081555900_0_1" index="1" disallow="pedestrian bicycle tram rail_urban rail rail_electric rail_fast ship" speed="4.89" length="6.09" shape="751.31,947.51 749.08,947.37 747.61,947.71 746.89,948.51 746.93,949.78"/>
    </edge>
    <edge id=":1081555900_2" function="internal">
        <lane id=":1081555900_2_0" index="0" disallow="tram rail_urban rail rail_electric rail_fast ship" speed="27.78" length="19.57" shape="751.31,947.51 731.78,944.45"/>
        <lane id=":1081555900_2_1" index="1" disallow="tram rail_urban rail rail_electric rail_fast ship" speed="27.78" length="19.57" shape="751.76,944.34 732.32,941.30"/>
        <lane id=":1081555900_2_2" index="2" disallow="tram rail_urban rail rail_electric rail_fast ship" speed="27.78" length="19.57" shape="752.20,941.17 732.86,938.14"/>
        <lane id=":1081555900_2_3" index="3" disallow="tram rail_urban rail rail_electric rail_fast ship" speed="27.78" length="19.57" shape="752.65,938.00 733.41,934.99"/>
        <lane id=":1081555900_2_4" index="4" disallow="tram rail_urban rail rail_electric rail_fast ship" speed="27.78" length="19.57" shape="753.10,934.83 733.95,931.84"/>
    </edge>
    <edge id=":1081555900_7" function="internal">
        <lane id=":1081555900_7_0" index="0" disallow="pedestrian bicycle tram rail_urban rail rail_electric rail_fast ship" speed="20.12" length="21.97" shape="744.13,927.76 750.01,948.92"/>
        <lane id=":1081555900_7_1" index="1" disallow="pedestrian bicycle tram rail_urban rail rail_electric rail_fast ship" speed="20.12" length="21.97" shape="741.04,928.61 746.93,949.78"/>
        <lane id=":1081555900_7_2" index="2" disallow="pedestrian bicycle tram rail_urban rail rail_electric rail_fast ship" speed="20.12" length="21.97" shape="737.96,929.47 743.85,950.64"/>
        <lane id=":1081555900_7_3" index="3" disallow="pedestrian bicycle tram rail_urban rail rail_electric rail_fast ship" speed="20.12" length="21.97" shape="734.88,930.33 740.76,951.50"/>
    </edge>
    <edge id=":1081555900_11" function="internal">
        <lane id=":1081555900_11_0" index="0" disallow="pedestrian bicycle tram rail_urban rail rail_electric rail_fast ship" speed="5.92" length="9.76" shape="734.88,930.33 735.64,934.03 735.56,936.57 734.64,937.94 732.86,938.14"/>
        <lane id=":1081555900_11_1" index="1" disallow="pedestrian bicycle tram rail_urban rail rail_electric rail_fast ship" speed="4.83" length="6.01" shape="734.88,930.33 735.32,932.55 735.23,934.07 734.59,934.89 733.41,934.99"/>
        <lane id=":1081555900_11_2" index="2" disallow="pedestrian bicycle tram rail_urban rail rail_electric rail_fast ship" speed="3.41" length="2.30" shape="734.88,930.33 735.00,931.08 734.89,931.58 734.54,931.83 733.95,931.84"/>
    </edge>
    <edge id=":1081555950_0" function="internal">
        <lane id=":1081555950_0_0" index="0" disallow="pedestrian bicycle tram rail_urban rail rail_electric rail_fast ship" speed="16.11" length="14.65" shape="758.47,967.36 757.07,970.39 756.29,973.26 756.06,976.57 756.28,980.98"/>
        <lane id=":1081555950_0_1" index="1" disallow="pedestrian bicycle tram rail_urban rail rail_electric rail_fast ship" speed="16.79" length="14.65" shape="758.47,967.36 756.56,970.36 754.68,973.18 753.35,976.57 753.09,981.24"/>
    </edge>
    <edge id=":1081555950_2" function="internal">
        <lane id=":1081555950_2_0" index="0" disallow="pedestrian bicycle tram rail_urban rail rail_electric rail_fast ship" speed="20.12" length="14.01" shape="753.00,967.02 756.28,980.98"/>
        <lane id=":1081555950_2_1" index="1" disallow="pedestrian bicycle tram rail_urban rail rail_electric rail_fast ship" speed="20.12" length="14.01" shape="749.84,967.50 753.09,981.24"/>
        <lane id=":1081555950_2_2" index="2" disallow="pedestrian bicycle tram rail_urban rail rail_electric rail_fast ship" speed="20.12" length="14.01" shape="746.67,967.98 749.90,981.50"/>
        <lane id=":1081555950_2_3" index="3" disallow="pedestrian bicycle tram rail_urban rail rail_electric rail_fast ship" speed="20.12" length="14.01" shape="743.51,968.45 746.72,981.76"/>
    </edge>
    <edge id=":1081555967_0" function="internal">
        <lane id=":1081555967_0_0" index="0" disallow="pedestrian bicycle tram rail_urban rail rail_electric rail_fast ship" speed="25.00" length="10.40" shape="776.33,926.82 779.08,928.07 781.00,929.00 783.01,929.77 786.02,930.53"/>
    </edge>
    <edge id=":1081555967_1" function="internal">
        <lane id=":1081555967_1_0" index="0" disallow="tram rail_urban rail rail_electric rail_fast ship" speed="27.78" length="10.66" shape="775.32,930.16 778.36,930.99 780.35,931.89 782.33,932.80 785.37,933.66"/>
        <lane id=":1081555967_1_1" index="1" disallow="tram rail_urban rail rail_electric rail_fast ship" speed="27.78" length="10.66" shape="774.69,933.29 777.73,934.13 779.71,935.03 781.69,935.93 784.72,936.79"/>
    </edge>
    <edge id=":1081555974_0" function="internal">
        <lane id=":1081555974_0_0" index="0" disallow="tram rail_urban rail rail_electric rail_fast ship" speed="27.78" length="9.01" shape="1017.45,1002.62 1015.06,1001.66 1013.54,1000.68 1012.00,999.77 1009.55,999.02"/>
        <lane id=":1081555974_0_1" index="1" disallow="tram rail_urban rail rail_electric rail_fast ship" speed="27.78" length="9.01" shape="1018.36,999.55 1015.89,998.57 1014.31,997.58 1012.72,996.66 1010.19,995.88"/>
        <lane id=":1081555974_0_2" index="2" disallow="tram rail_urban rail rail_electric rail_fast ship" speed="27.78" length="9.01" shape="1019.27,996.49 1016.72,995.48 1015.09,994.47 1013.44,993.54 1010.83,992.75"/>
    </edge>
    <edge id=":1081555974_3" function="internal">
        <lane id=":1081555974_3_0" index="0" disallow="tram rail_urban rail rail_electric rail_fast ship" speed="5.73" length="6.45" shape="1020.18,993.42 1018.84,993.02 1016.86,992.36 1015.09,991.56 1014.42,990.78"/>
    </edge>
    <edge id=":1081555974_4" function="internal">
        <lane id=":1081555974_4_0" index="0" disallow="tram rail_urban rail rail_electric rail_fast ship" speed="6.78" length="9.71" shape="1017.54,991.49 1016.60,993.88 1015.06,995.40 1012.93,996.07 1010.19,995.88"/>
        <lane id=":1081555974_4_1" index="1" disallow="tram rail_urban rail rail_electric rail_fast ship" speed="6.01" length="7.42" shape="1017.54,991.49 1016.91,992.51 1015.58,993.06 1013.55,993.14 1010.83,992.75"/>
    </edge>
    <edge id=":1081555974_6" function="internal">
        <lane id=":1081555974_6_0" index="0" disallow="tram rail_urban rail rail_electric rail_fast ship" speed="3.65" length="4.67" shape="1017.54,991.49 1016.50,992.48 1015.63,992.69 1014.94,992.13 1014.42,990.78"/>
    </edge>
    <edge id=":1081556069_0" function="internal">
        <lane id=":1081556069_0_0" index="0" disallow="tram rail_urban rail rail_electric rail_fast ship" speed="9.13" length="6.11" shape="1247.79,1062.13 1247.62,1060.35 1247.29,1059.13 1246.62,1058.06 1245.43,1056.72"/>
    </edge>
    <edge id=":1081556086_0" function="internal">
        <lane id=":1081556086_0_0" index="0" disallow="tram rail_urban rail rail_electric rail_fast ship" speed="6.66" length="6.59" shape="1302.82,1014.71 1302.15,1016.30 1302.00,1017.86 1302.35,1019.39 1303.22,1020.88"/>
    </edge>
    <edge id=":1081556086_1" function="internal">
        <lane id=":1081556086_1_0" index="0" disallow="tram rail_urban rail rail_electric rail_fast ship" speed="22.22" length="8.38" shape="1300.04,1013.12 1299.05,1015.36 1298.73,1017.05 1298.42,1018.75 1297.45,1021.01"/>
        <lane id=":1081556086_1_1" index="1" disallow="tram rail_urban rail rail_electric rail_fast ship" speed="22.22" length="8.38" shape="1297.26,1011.53 1296.27,1013.78 1295.94,1015.48 1295.63,1017.19 1294.65,1019.46"/>
    </edge>
    <edge id=":1081556113_0" function="internal">
        <lane id=":1081556113_0_0" index="0" disallow="tram rail_urban rail rail_electric rail_fast ship" speed="13.95" length="5.73" shape="1286.15,1063.57 1284.48,1063.87 1283.35,1064.18 1282.30,1064.69 1280.89,1065.62"/>
    </edge>
    <edge id=":1081556117_0" function="internal">
        <lane id=":1081556117_0_0" index="0" disallow="pedestrian bicycle tram rail_urban rail rail_electric rail_fast ship" speed="18.09" length="7.64" shape="739.43,900.78 740.22,902.86 741.06,904.16 742.14,905.32 743.66,907.02"/>
    </edge>
    <edge id=":1081556117_1" function="internal">
        <lane id=":1081556117_1_0" index="0" disallow="pedestrian bicycle tram rail_urban rail rail_electric rail_fast ship" speed="22.35" length="6.73" shape="736.37,901.71 737.19,903.47 738.13,904.50 739.08,905.52 739.92,907.28"/>
        <lane id=":1081556117_1_1" index="1" disallow="pedestrian bicycle tram rail_urban rail rail_electric rail_fast ship" speed="22.35" length="6.73" shape="733.31,902.64 734.13,904.41 735.08,905.44 736.03,906.47 736.86,908.23"/>
        <lane id=":1081556117_1_2" index="2" disallow="pedestrian bicycle tram rail_urban rail rail_electric rail_fast ship" speed="22.35" length="6.73" shape="730.24,903.57 731.07,905.34 732.02,906.38 732.97,907.42 733.81,909.19"/>
        <lane id=":1081556117_1_3" index="3" disallow="pedestrian bicycle tram rail_urban rail rail_electric rail_fast ship" speed="22.35" length="6.73" shape="727.18,904.50 728.01,906.28 728.96,907.33 729.91,908.37 730.75,910.14"/>
        <lane id=":1081556117_1_4" index="4" disallow="pedestrian bicycle tram rail_urban rail rail_electric rail_fast ship" speed="22.35" length="6.73" shape="724.12,905.43 724.95,907.22 725.90,908.27 726.86,909.31 727.70,911.10"/>
    </edge>
    <edge id=":1081556129_0" function="internal">
        <lane id=":1081556129_0_0" index="0" disallow="tram rail_urban rail rail_electric rail_fast ship" speed="27.78" length="13.61" shape="1274.98,1050.94 1271.72,1050.80 1268.82,1051.34 1265.59,1051.81 1261.31,1051.46"/>
        <lane id=":1081556129_0_1" index="1" disallow="tram rail_urban rail rail_electric rail_fast ship" speed="27.78" length="13.61" shape="1274.98,1050.94 1261.94,1048.33"/>
        <lane id=":1081556129_0_2" index="2" disallow="tram rail_urban rail rail_electric rail_fast ship" speed="27.78" length="13.61" shape="1274.98,1050.94 1271.92,1049.82 1269.45,1048.20 1266.65,1046.52 1262.57,1045.19"/>
    </edge>
    <edge id=":1081556129_3" function="internal">
        <lane id=":1081556129_3_0" index="0" disallow="tram rail_urban rail rail_electric rail_fast ship" speed="6.06" length="9.48" shape="1274.98,1050.94 1272.68,1050.05 1271.51,1048.54 1271.48,1046.41 1272.58,1043.66"/>
    </edge>
    <edge id=":1081556129_4" function="internal">
        <lane id=":1081556129_4_0" index="0" disallow="tram rail_urban rail rail_electric rail_fast ship" speed="4.76" length="5.69" shape="1263.47,1055.33 1264.11,1053.95 1263.97,1052.85 1263.04,1052.02 1261.31,1051.46"/>
    </edge>
    <edge id=":1081556129_5" function="internal">
        <lane id=":1081556129_5_0" index="0" disallow="tram rail_urban rail rail_electric rail_fast ship" speed="22.22" length="15.00" shape="1266.10,1057.15 1268.57,1053.06 1270.04,1049.74 1271.16,1046.75 1272.58,1043.66"/>
    </edge>
    <edge id=":1081556210_0" function="internal">
        <lane id=":1081556210_0_0" index="0" disallow="tram rail_urban rail rail_electric rail_fast ship" speed="17.02" length="17.68" shape="1241.16,1052.20 1238.51,1049.66 1235.37,1047.48 1231.29,1045.64 1225.79,1044.12"/>
    </edge>
    <edge id=":1081556210_1" function="internal">
        <lane id=":1081556210_1_0" index="0" disallow="tram rail_urban rail rail_electric rail_fast ship" speed="27.78" length="17.62" shape="1243.06,1047.68 1225.79,1044.12"/>
        <lane id=":1081556210_1_1" index="1" disallow="tram rail_urban rail rail_electric rail_fast ship" speed="27.78" length="17.62" shape="1243.72,1044.54 1226.46,1040.99"/>
        <lane id=":1081556210_1_2" index="2" disallow="tram rail_urban rail rail_electric rail_fast ship" speed="27.78" length="17.62" shape="1244.37,1041.41 1227.13,1037.86"/>
    </edge>
    <edge id=":1081556219_0" function="internal">
        <lane id=":1081556219_0_0" index="0" disallow="tram rail_urban rail rail_electric rail_fast ship" speed="27.78" length="0.26" shape="1107.26,1003.90 1107.34,1003.91"/>
        <lane id=":1081556219_0_1" index="1" disallow="tram rail_urban rail rail_electric rail_fast ship" speed="27.78" length="0.26" shape="1106.61,1007.03 1106.87,1007.08"/>
        <lane id=":1081556219_0_2" index="2" disallow="tram rail_urban rail rail_electric rail_fast ship" speed="27.78" length="0.26" shape="1105.97,1010.17 1106.39,1010.24"/>
    </edge>
    <edge id=":1097248647_0" function="internal">
        <lane id=":1097248647_0_0" index="0" disallow="tram rail_urban rail rail_electric rail_fast ship" speed="21.41" length="8.03" shape="281.92,810.92 280.07,809.46 278.62,808.74 277.03,808.24 274.77,807.46"/>
    </edge>
    <edge id=":1097248647_1" function="internal">
        <lane id=":1097248647_1_0" index="0" disallow="tram rail_urban rail rail_electric rail_fast ship" speed="27.78" length="8.58" shape="284.05,808.54 282.01,807.07 280.38,806.41 278.73,805.76 276.67,804.32"/>
        <lane id=":1097248647_1_1" index="1" disallow="tram rail_urban rail rail_electric rail_fast ship" speed="27.78" length="8.58" shape="286.19,806.15 284.14,804.68 282.50,804.02 280.85,803.36 278.78,801.91"/>
    </edge>
    <edge id=":1097248655_0" function="internal">
        <lane id=":1097248655_0_0" index="0" disallow="tram rail_urban rail rail_electric rail_fast ship" speed="10.07" length="7.93" shape="262.75,756.49 265.09,756.05 266.79,755.76 268.22,755.07 269.71,753.40"/>
    </edge>
    <edge id=":1097248655_1" function="internal">
        <lane id=":1097248655_1_0" index="0" disallow="tram rail_urban rail rail_electric rail_fast ship" speed="27.78" length="8.05" shape="264.99,759.89 269.71,753.40"/>
        <lane id=":1097248655_1_1" index="1" disallow="tram rail_urban rail rail_electric rail_fast ship" speed="27.78" length="8.05" shape="267.58,761.77 272.33,755.24"/>
    </edge>
    <edge id=":1106989987_0" function="internal">
        <lane id=":1106989987_0_0" index="0" disallow="tram rail_urban rail rail_electric rail_fast ship" speed="22.22" length="12.26" shape="1228.35,1139.19 1221.92,1149.28"/>
        <lane id=":1106989987_0_1" index="1" disallow="tram rail_urban rail rail_electric rail_fast ship" speed="22.22" length="12.26" shape="1228.35,1139.19 1226.29,1141.57 1224.02,1143.02 1221.63,1144.66 1219.19,1147.61"/>
    </edge>
    <edge id=":1106989987_2" function="internal">
        <lane id=":1106989987_2_0" index="0" disallow="tram rail_urban rail rail_electric rail_fast ship" speed="6.25" length="10.12" shape="1228.35,1139.19 1225.44,1143.23 1223.09,1144.74 1221.32,1143.72 1221.22,1143.43"/>
    </edge>
    <edge id=":1106989987_6" function="internal">
        <lane id=":1106989987_6_0" index="0" disallow="tram rail_urban rail rail_electric rail_fast ship" speed="6.25" length="3.45" shape="1221.22,1143.43 1220.11,1140.17"/>
    </edge>
    <edge id=":1106989987_3" function="internal">
        <lane id=":1106989987_3_0" index="0" disallow="tram rail_urban rail rail_electric rail_fast ship" speed="8.15" length="6.11" shape="1216.46,1145.93 1217.18,1144.55 1217.41,1143.48 1217.29,1142.34 1216.97,1140.77"/>
        <lane id=":1106989987_3_1" index="1" disallow="tram rail_urban rail rail_electric rail_fast ship" speed="9.10" length="6.11" shape="1216.46,1145.93 1220.11,1140.17"/>
    </edge>
    <edge id=":1106989987_5" function="internal">
        <lane id=":1106989987_5_0" index="0" disallow="tram rail_urban rail rail_electric rail_fast ship" speed="3.65" length="1.44" shape="1216.46,1145.93 1217.77,1145.33"/>
    </edge>
    <edge id=":1106989987_7" function="internal">
        <lane id=":1106989987_7_0" index="0" disallow="tram rail_urban rail rail_electric rail_fast ship" speed="3.65" length="3.23" shape="1217.77,1145.33 1218.67,1145.41 1219.14,1146.17 1219.19,1147.61"/>
    </edge>
    <edge id=":1106990017_0" function="internal">
        <lane id=":1106990017_0_0" index="0" allow="pedestrian delivery bicycle" speed="3.65" length="4.67" shape="975.39,1357.52 975.37,1358.96 974.92,1359.73 974.03,1359.83 972.71,1359.26"/>
    </edge>
    <edge id=":1106990029_0" function="internal">
        <lane id=":1106990029_0_0" index="0" disallow="tram rail_urban rail rail_electric rail_fast ship" speed="6.81" length="7.76" shape="1282.99,1057.53 1280.24,1057.08 1278.11,1057.07 1276.58,1057.50 1275.67,1058.36"/>
    </edge>
    <edge id=":1106990029_1" function="internal">
        <lane id=":1106990029_1_0" index="0" disallow="tram rail_urban rail rail_electric rail_fast ship" speed="22.83" length="9.20" shape="1283.67,1054.40 1281.09,1053.58 1279.43,1052.66 1277.77,1051.76 1275.18,1050.98"/>
    </edge>
    <edge id=":1106990029_2" function="internal">
        <lane id=":1106990029_2_0" index="0" disallow="tram rail_urban rail rail_electric rail_fast ship" speed="22.22" length="15.36" shape="1282.99,1044.86 1275.67,1058.36"/>
    </edge>
    <edge id=":1106990029_3" function="internal">
        <lane id=":1106990029_3_0" index="0" disallow="tram rail_urban rail rail_electric rail_fast ship" speed="7.84" length="10.60" shape="1282.99,1044.86 1281.13,1047.85 1279.20,1049.87 1277.22,1050.91 1275.18,1050.98"/>
    </edge>
    <edge id=":1106990046_0" function="internal">
        <lane id=":1106990046_0_0" index="0" disallow="tram rail_urban rail rail_electric rail_fast ship" speed="5.26" length="6.59" shape="1291.76,1031.41 1291.04,1033.35 1291.08,1034.86 1291.88,1035.93 1293.43,1036.58"/>
    </edge>
    <edge id=":1106990046_1" function="internal">
        <lane id=":1106990046_1_0" index="0" disallow="tram rail_urban rail rail_electric rail_fast ship" speed="22.22" length="15.85" shape="1288.91,1029.96 1286.81,1034.62 1285.53,1038.31 1284.48,1041.51 1283.09,1044.68"/>
    </edge>
    <edge id=":1106990046_2" function="internal">
        <lane id=":1106990046_2_0" index="0" disallow="tram rail_urban rail rail_electric rail_fast ship" speed="17.88" length="11.71" shape="1282.01,1034.03 1293.43,1036.58"/>
        <lane id=":1106990046_2_1" index="1" disallow="tram rail_urban rail rail_electric rail_fast ship" speed="17.88" length="11.71" shape="1281.31,1037.16 1292.73,1039.70"/>
        <lane id=":1106990046_2_2" index="2" disallow="tram rail_urban rail rail_electric rail_fast ship" speed="17.88" length="11.71" shape="1280.61,1040.28 1292.04,1042.83"/>
    </edge>
    <edge id=":1106990046_5" function="internal">
        <lane id=":1106990046_5_0" index="0" disallow="tram rail_urban rail rail_electric rail_fast ship" speed="5.10" length="6.19" shape="1280.61,1040.28 1282.38,1040.92 1283.38,1041.86 1283.62,1043.12 1283.09,1044.68"/>
    </edge>
    <edge id=":1106990056_0" function="internal">
        <lane id=":1106990056_0_0" index="0" disallow="tram rail_urban rail rail_electric rail_fast ship" speed="6.48" length="9.03" shape="1253.66,1108.07 1251.39,1107.07 1249.35,1107.05 1247.55,1108.00 1245.98,1109.92"/>
    </edge>
    <edge id=":1106990056_1" function="internal">
        <lane id=":1106990056_1_0" index="0" disallow="tram rail_urban rail rail_electric rail_fast ship" speed="3.65" length="4.67" shape="1253.66,1108.07 1253.06,1106.75 1253.14,1105.86 1253.90,1105.39 1255.35,1105.34"/>
    </edge>
    <edge id=":1106990056_2" function="internal">
        <lane id=":1106990056_2_0" index="0" disallow="tram rail_urban rail rail_electric rail_fast ship" speed="6.62" length="9.15" shape="1253.26,1097.54 1252.36,1099.83 1252.40,1101.90 1253.40,1103.73 1255.35,1105.34"/>
    </edge>
    <edge id=":1106990056_3" function="internal">
        <lane id=":1106990056_3_0" index="0" disallow="tram rail_urban rail rail_electric rail_fast ship" speed="22.22" length="14.37" shape="1253.26,1097.54 1245.98,1109.92"/>
    </edge>
    <edge id=":2471909781_0" function="internal">
        <lane id=":2471909781_0_0" index="0" allow="pedestrian delivery bicycle" speed="5.56" length="7.83" shape="482.44,811.02 481.86,809.36 480.72,808.03 479.04,807.00 476.80,806.29"/>
    </edge>
    <edge id=":2471909781_1" function="internal">