<?xml version="1.0" encoding="UTF-8"?>

<!-- generated on 2023-05-12 20:36:55 by Eclipse SUMO netedit Version 1.17.0
<configuration xmlns:xsi="http://www.w3.org/2001/XMLSchema-instance" xsi:noNamespaceSchemaLocation="http://sumo.dlr.de/xsd/netconvertConfiguration.xsd">

    <input>
        <sumo-net-file value="/Users/serenazhang/Documents/traffic/intersection_1.net.xml"/>
    </input>

    <output>
        <output-file value="/Users/serenazhang/Documents/traffic/intersection_1.net.xml"/>
    </output>

    <processing>
        <offset.disable-normalization value="true"/>
    </processing>

    <junctions>
        <no-turnarounds value="true"/>
    </junctions>

    <netedit>
        <new-network value="false"/>
    </netedit>

</configuration>
-->

<net version="1.16" junctionCornerDetail="5" limitTurnSpeed="5.50" xmlns:xsi="http://www.w3.org/2001/XMLSchema-instance" xsi:noNamespaceSchemaLocation="http://sumo.dlr.de/xsd/net_file.xsd">

    <location netOffset="0.00,0.00" convBoundary="-36.89,-0.82,122.96,125.76" origBoundary="10000000000.00,10000000000.00,-10000000000.00,-10000000000.00" projParameter="!"/>

    <edge id=":J4_0" function="internal">
        <lane id=":J4_0_0" index="0" speed="6.53" length="9.07" shape="45.64,69.01 43.18,69.36 41.42,70.42 40.37,72.18 40.01,74.64"/>
    </edge>
    <edge id=":J4_1" function="internal">
        <lane id=":J4_1_0" index="0" speed="13.89" length="20.82" shape="45.64,69.01 24.82,69.01"/>
    </edge>
    <edge id=":J4_2" function="internal">
        <lane id=":J4_2_0" index="0" speed="9.26" length="10.42" shape="45.64,65.81 40.39,65.06 36.64,62.81 36.25,62.17"/>
    </edge>
    <edge id=":J4_12" function="internal">
        <lane id=":J4_12_0" index="0" speed="9.26" length="8.93" shape="36.25,62.17 34.39,59.06 33.64,53.81"/>
    </edge>
    <edge id=":J4_3" function="internal">
        <lane id=":J4_3_0" index="0" speed="6.51" length="9.03" shape="40.04,53.81 40.39,56.26 41.44,58.01 43.19,59.06 45.64,59.41"/>
    </edge>
    <edge id=":J4_4" function="internal">
        <lane id=":J4_4_0" index="0" speed="13.89" length="20.83" shape="40.04,53.81 40.01,74.64"/>
    </edge>
    <edge id=":J4_5" function="internal">
        <lane id=":J4_5_0" index="0" speed="9.26" length="10.43" shape="36.84,53.81 36.09,59.06 33.83,62.81 33.19,63.20"/>
    </edge>
    <edge id=":J4_13" function="internal">
        <lane id=":J4_13_0" index="0" speed="9.26" length="8.93" shape="33.19,63.20 30.08,65.06 24.82,65.81"/>
    </edge>
    <edge id=":J4_6" function="internal">
        <lane id=":J4_6_0" index="0" speed="6.51" length="9.05" shape="24.82,59.41 27.28,59.06 29.03,58.01 30.09,56.26 30.44,53.81"/>
    </edge>
    <edge id=":J4_7" function="internal">
        <lane id=":J4_7_0" index="0" speed="13.89" length="20.82" shape="24.82,59.41 45.64,59.41"/>
    </edge>
    <edge id=":J4_8" function="internal">
        <lane id=":J4_8_0" index="0" speed="9.25" length="10.42" shape="24.82,62.61 30.08,63.36 33.83,65.62 34.21,66.25"/>
    </edge>
    <edge id=":J4_14" function="internal">
        <lane id=":J4_14_0" index="0" speed="9.25" length="8.95" shape="34.21,66.25 36.07,69.37 36.81,74.63"/>
    </edge>
    <edge id=":J4_9" function="internal">
        <lane id=":J4_9_0" index="0" speed="6.50" length="9.03" shape="30.41,74.62 30.07,72.16 29.02,70.41 27.27,69.36 24.82,69.01"/>
    </edge>
    <edge id=":J4_10" function="internal">
        <lane id=":J4_10_0" index="0" speed="13.89" length="20.80" shape="30.41,74.62 30.44,53.81"/>
    </edge>
    <edge id=":J4_11" function="internal">
        <lane id=":J4_11_0" index="0" speed="9.27" length="10.43" shape="33.61,74.62 34.37,69.37 36.63,65.61 37.26,65.24"/>
    </edge>
    <edge id=":J4_15" function="internal">
        <lane id=":J4_15_0" index="0" speed="9.27" length="8.95" shape="37.26,65.24 40.39,63.36 45.64,62.61"/>
    </edge>

    <edge id="-E2" from="J5" to="J4" priority="-1" length="70.00">
        <lane id="-E2_0" index="0" speed="13.89" length="70.00" shape="122.96,69.01 45.64,69.01"/>
        <lane id="-E2_1" index="1" speed="13.89" length="70.00" shape="122.96,65.81 45.64,65.81"/>
    </edge>
    <edge id="-E3" from="J6" to="J4" priority="-1" length="70.00">
        <lane id="-E3_0" index="0" speed="13.89" length="70.00" shape="40.04,-0.82 40.04,53.81"/>
        <lane id="-E3_1" index="1" speed="13.89" length="70.00" shape="36.84,-0.82 36.84,53.81"/>
    </edge>
    <edge id="-E4" from="J7" to="J4" priority="-1" length="70.00">
        <lane id="-E4_0" index="0" speed="13.89" length="70.00" shape="-36.89,59.41 24.82,59.41"/>
        <lane id="-E4_1" index="1" speed="13.89" length="70.00" shape="-36.89,62.61 24.82,62.61"/>
    </edge>
    <edge id="-E5" from="J4" to="J8" priority="-1" length="70.00">
        <lane id="-E5_0" index="0" speed="13.89" length="70.00" shape="40.01,74.64 39.88,125.77"/>
        <lane id="-E5_1" index="1" speed="13.89" length="70.00" shape="36.81,74.63 36.68,125.76"/>
    </edge>
    <edge id="E2" from="J4" to="J5" priority="-1" length="70.00">
        <lane id="E2_0" index="0" speed="13.89" length="70.00" shape="45.64,59.41 122.96,59.41"/>
        <lane id="E2_1" index="1" speed="13.89" length="70.00" shape="45.64,62.61 122.96,62.61"/>
    </edge>
    <edge id="E3" from="J4" to="J6" priority="-1" length="70.00">
        <lane id="E3_0" index="0" speed="13.89" length="70.00" shape="30.44,53.81 30.44,-0.82"/>
        <lane id="E3_1" index="1" speed="13.89" length="70.00" shape="33.64,53.81 33.64,-0.82"/>
    </edge>
    <edge id="E4" from="J4" to="J7" priority="-1" length="70.00">
        <lane id="E4_0" index="0" speed="13.89" length="70.00" shape="24.82,69.01 -36.89,69.01"/>
        <lane id="E4_1" index="1" speed="13.89" length="70.00" shape="24.82,65.81 -36.89,65.81"/>
    </edge>
    <edge id="E5" from="J8" to="J4" priority="-1" length="70.00">
        <lane id="E5_0" index="0" speed="13.89" length="70.00" shape="30.28,125.75 30.41,74.62"/>
        <lane id="E5_1" index="1" speed="13.89" length="70.00" shape="33.48,125.76 33.61,74.62"/>
    </edge>

    <tlLogic id="J4" type="static" programID="0" offset="0">
        <phase duration="33" state="gggrrrGGgrrr"/>
        <phase duration="3"  state="yygrrryygrrr"/>
        <phase duration="6"  state="rrGrrrrrGrrr"/>
        <phase duration="3"  state="rryrrrrryrrr"/>
        <phase duration="33" state="rrrGGgrrrGGg"/>
        <phase duration="3"  state="rrryygrrryyg"/>
        <phase duration="6"  state="rrrrrGrrrrrG"/>
        <phase duration="3"  state="rrrrryrrrrry"/>
    </tlLogic>

    <junction id="J4" type="traffic_light" x="35.24" y="64.21" incLanes="-E2_0 -E2_1 -E3_0 -E3_1 -E4_0 -E4_1 E5_0 E5_1" intLanes=":J4_0_0 :J4_1_0 :J4_12_0 :J4_3_0 :J4_4_0 :J4_13_0 :J4_6_0 :J4_7_0 :J4_14_0 :J4_9_0 :J4_10_0 :J4_15_0" shape="45.64,70.61 45.64,57.81 43.41,57.37 42.64,56.81 42.08,56.03 41.75,55.03 41.64,53.81 28.84,53.81 28.39,56.03 27.83,56.81 27.05,57.37 26.05,57.70 24.82,57.81 24.82,70.61 27.04,71.06 27.82,71.61 28.37,72.39 28.70,73.39 28.81,74.61 41.61,74.64 42.06,72.40 42.62,71.62 43.40,71.06 44.41,70.72">
        <request index="0"  response="000000000000" foes="000000010000" cont="0"/>
        <request index="1"  response="100000000000" foes="111100010000" cont="0"/>
        <request index="2"  response="100010100000" foes="100010110000" cont="1"/>
        <request index="3"  response="000010000000" foes="000010000000" cont="0"/>
        <request index="4"  response="000010000111" foes="100010000111" cont="0"/>
        <request index="5"  response="010110000100" foes="010110000100" cont="1"/>
        <request index="6"  response="000000000000" foes="010000000000" cont="0"/>
        <request index="7"  response="000000100000" foes="010000111100" cont="0"/>
        <request index="8"  response="100000100010" foes="110000100010" cont="1"/>
        <request index="9"  response="000000000010" foes="000000000010" cont="0"/>
        <request index="10" response="000111000010" foes="000111100010" cont="0"/>
        <request index="11" response="000100010110" foes="000100010110" cont="1"/>
    </junction>
    <junction id="J5" type="dead_end" x="122.96" y="64.21" incLanes="E2_0 E2_1" intLanes="" shape="122.96,64.21 122.96,57.81 122.96,64.21"/>
    <junction id="J6" type="dead_end" x="35.24" y="-0.82" incLanes="E3_0 E3_1" intLanes="" shape="35.24,-0.82 28.84,-0.82 35.24,-0.82"/>
    <junction id="J7" type="dead_end" x="-36.89" y="64.21" incLanes="E4_0 E4_1" intLanes="" shape="-36.89,64.21 -36.89,70.61 -36.89,64.21"/>
    <junction id="J8" type="dead_end" x="35.08" y="125.76" incLanes="-E5_0 -E5_1" intLanes="" shape="35.08,125.76 41.48,125.78 35.08,125.76"/>

    <junction id=":J4_12_0" type="internal" x="36.25" y="62.17" incLanes=":J4_2_0 -E4_0" intLanes=":J4_4_0 :J4_5_0 :J4_6_0 :J4_7_0 :J4_10_0 :J4_11_0"/>
    <junction id=":J4_13_0" type="internal" x="33.19" y="63.20" incLanes=":J4_5_0 E5_0" intLanes=":J4_1_0 :J4_2_0 :J4_7_0 :J4_8_0 :J4_9_0 :J4_10_0"/>
    <junction id=":J4_14_0" type="internal" x="34.21" y="66.25" incLanes=":J4_8_0 -E2_0" intLanes=":J4_0_0 :J4_1_0 :J4_4_0 :J4_5_0 :J4_10_0 :J4_11_0"/>
    <junction id=":J4_15_0" type="internal" x="37.26" y="65.24" incLanes=":J4_11_0 -E3_0" intLanes=":J4_1_0 :J4_2_0 :J4_3_0 :J4_4_0 :J4_7_0 :J4_8_0"/>

    <connection from="-E2" to="-E5" fromLane="0" toLane="0" via=":J4_0_0" tl="J4" linkIndex="0" dir="r" state="O"/>
    <connection from="-E2" to="E4" fromLane="0" toLane="0" via=":J4_1_0" tl="J4" linkIndex="1" dir="s" state="O"/>
    <connection from="-E2" to="E3" fromLane="1" toLane="1" via=":J4_2_0" tl="J4" linkIndex="2" dir="l" state="o"/>
    <connection from="-E3" to="E2" fromLane="0" toLane="0" via=":J4_3_0" tl="J4" linkIndex="3" dir="r" state="o"/>
    <connection from="-E3" to="-E5" fromLane="0" toLane="0" via=":J4_4_0" tl="J4" linkIndex="4" dir="s" state="o"/>
    <connection from="-E3" to="E4" fromLane="1" toLane="1" via=":J4_5_0" tl="J4" linkIndex="5" dir="l" state="o"/>
    <connection from="-E4" to="E3" fromLane="0" toLane="0" via=":J4_6_0" tl="J4" linkIndex="6" dir="r" state="O"/>
    <connection from="-E4" to="E2" fromLane="0" toLane="0" via=":J4_7_0" tl="J4" linkIndex="7" dir="s" state="O"/>
    <connection from="-E4" to="-E5" fromLane="1" toLane="1" via=":J4_8_0" tl="J4" linkIndex="8" dir="l" state="o"/>
    <connection from="E5" to="E4" fromLane="0" toLane="0" via=":J4_9_0" tl="J4" linkIndex="9" dir="r" state="o"/>
    <connection from="E5" to="E3" fromLane="0" toLane="0" via=":J4_10_0" tl="J4" linkIndex="10" dir="s" state="o"/>
    <connection from="E5" to="E2" fromLane="1" toLane="1" via=":J4_11_0" tl="J4" linkIndex="11" dir="l" state="o"/>

    <connection from=":J4_0" to="-E5" fromLane="0" toLane="0" dir="r" state="M"/>
    <connection from=":J4_1" to="E4" fromLane="0" toLane="0" dir="s" state="M"/>
    <connection from=":J4_2" to="E3" fromLane="0" toLane="1" via=":J4_12_0" dir="l" state="m"/>
    <connection from=":J4_12" to="E3" fromLane="0" toLane="1" dir="l" state="M"/>
    <connection from=":J4_3" to="E2" fromLane="0" toLane="0" dir="r" state="M"/>
    <connection from=":J4_4" to="-E5" fromLane="0" toLane="0" dir="s" state="M"/>
    <connection from=":J4_5" to="E4" fromLane="0" toLane="1" via=":J4_13_0" dir="l" state="m"/>
    <connection from=":J4_13" to="E4" fromLane="0" toLane="1" dir="l" state="M"/>
    <connection from=":J4_6" to="E3" fromLane="0" toLane="0" dir="r" state="M"/>
    <connection from=":J4_7" to="E2" fromLane="0" toLane="0" dir="s" state="M"/>
    <connection from=":J4_8" to="-E5" fromLane="0" toLane="1" via=":J4_14_0" dir="l" state="m"/>
    <connection from=":J4_14" to="-E5" fromLane="0" toLane="1" dir="l" state="M"/>
    <connection from=":J4_9" to="E4" fromLane="0" toLane="0" dir="r" state="M"/>
    <connection from=":J4_10" to="E3" fromLane="0" toLane="0" dir="s" state="M"/>
    <connection from=":J4_11" to="E2" fromLane="0" toLane="1" via=":J4_15_0" dir="l" state="m"/>
    <connection from=":J4_15" to="E2" fromLane="0" toLane="1" dir="l" state="M"/>

</net>
