<?xml version="1.0" encoding="UTF-8"?>

<!-- generated on 2023-06-10 15:18:41 by Eclipse SUMO netedit Version 1.17.0
<configuration xmlns:xsi="http://www.w3.org/2001/XMLSchema-instance" xsi:noNamespaceSchemaLocation="http://sumo.dlr.de/xsd/netconvertConfiguration.xsd">

    <input>
        <sumo-net-file value="/Users/serenazhang/Documents/traffic/traffic_rl/maps/intersection_2.net.xml"/>
    </input>

    <output>
        <output-file value="/Users/serenazhang/Documents/traffic/traffic_rl/maps/intersection_2.net.xml"/>
    </output>

    <processing>
        <geometry.min-radius.fix.railways value="false"/>
        <geometry.max-grade.fix value="false"/>
        <offset.disable-normalization value="true"/>
        <lefthand value="0"/>
    </processing>

    <junctions>
        <no-turnarounds value="true"/>
        <junctions.corner-detail value="5"/>
        <junctions.limit-turn-speed value="5.50"/>
        <rectangular-lane-cut value="0"/>
    </junctions>

    <pedestrian>
        <walkingareas value="0"/>
    </pedestrian>

</configuration>
-->

<net version="1.16" junctionCornerDetail="5" limitTurnSpeed="5.50" xmlns:xsi="http://www.w3.org/2001/XMLSchema-instance" xsi:noNamespaceSchemaLocation="http://sumo.dlr.de/xsd/net_file.xsd">

    <location netOffset="0.00,0.00" convBoundary="-37.38,-65.35,205.99,126.42" origBoundary="-10000000000.00,-10000000000.00,10000000000.00,10000000000.00" projParameter="!"/>

    <edge id=":J0_0" function="internal">
        <lane id=":J0_0_0" index="0" speed="6.55" length="9.11" shape="201.05,74.97 200.69,72.53 199.61,70.78 197.83,69.72 195.34,69.36"/>
    </edge>
    <edge id=":J0_1" function="internal">
        <lane id=":J0_1_0" index="0" speed="13.89" length="20.80" shape="201.05,74.97 200.99,54.17"/>
        <lane id=":J0_1_1" index="1" speed="13.89" length="20.80" shape="204.25,74.97 204.19,54.16"/>
    </edge>
    <edge id=":J0_3" function="internal">
        <lane id=":J0_3_0" index="0" speed="13.89" length="20.81" shape="210.59,54.14 210.65,74.95"/>
    </edge>
    <edge id=":J0_4" function="internal">
        <lane id=":J0_4_0" index="0" speed="9.25" length="5.02" shape="207.39,54.15 206.69,59.12"/>
    </edge>
    <edge id=":J0_7" function="internal">
        <lane id=":J0_7_0" index="0" speed="9.25" length="14.40" shape="206.69,59.12 206.65,59.43 204.40,63.19 200.64,65.43 195.36,66.16"/>
    </edge>
    <edge id=":J0_5" function="internal">
        <lane id=":J0_5_0" index="0" speed="6.49" length="9.03" shape="195.39,59.76 197.85,59.42 199.60,58.38 200.64,56.63 200.99,54.17"/>
    </edge>
    <edge id=":J0_6" function="internal">
        <lane id=":J0_6_0" index="0" speed="9.29" length="19.38" shape="195.38,62.96 200.65,63.73 204.41,65.99 206.68,69.73 207.45,74.96"/>
    </edge>
    <edge id=":J1_0" function="internal">
        <lane id=":J1_0_0" index="0" speed="8.96" length="17.98" shape="-30.44,130.90 -35.31,130.18 -38.79,128.08 -40.89,124.59 -41.59,119.72"/>
        <lane id=":J1_0_1" index="1" speed="7.66" length="12.85" shape="-30.43,127.70 -33.91,127.19 -36.39,125.68 -37.89,123.19 -38.39,119.71"/>
    </edge>
    <edge id=":J1_2" function="internal">
        <lane id=":J1_2_0" index="0" speed="3.90" length="2.57" shape="-31.99,119.70 -31.89,120.40 -31.59,120.89 -31.09,121.20 -30.40,121.30"/>
        <lane id=":J1_2_1" index="1" speed="6.08" length="7.71" shape="-35.19,119.71 -34.89,121.79 -33.99,123.29 -32.50,124.19 -30.41,124.50"/>
    </edge>
    <edge id=":J10_0" function="internal">
        <lane id=":J10_0_0" index="0" speed="6.53" length="9.10" shape="118.05,7.83 117.69,5.35 116.64,3.59 114.87,2.53 112.41,2.17"/>
    </edge>
    <edge id=":J10_1" function="internal">
        <lane id=":J10_1_0" index="0" speed="13.89" length="20.86" shape="118.05,7.83 118.00,-13.03"/>
    </edge>
    <edge id=":J10_2" function="internal">
        <lane id=":J10_2_0" index="0" speed="9.25" length="19.41" shape="121.25,7.82 121.99,2.55 124.25,-1.21 128.01,-3.45 133.29,-4.17"/>
    </edge>
    <edge id=":J10_3" function="internal">
        <lane id=":J10_3_0" index="0" speed="6.49" length="9.03" shape="133.25,2.23 130.80,2.56 129.05,3.61 128.00,5.35 127.65,7.81"/>
    </edge>
    <edge id=":J10_4" function="internal">
        <lane id=":J10_4_0" index="0" speed="13.89" length="20.84" shape="133.25,2.23 112.41,2.17"/>
    </edge>
    <edge id=":J10_5" function="internal">
        <lane id=":J10_5_0" index="0" speed="9.31" length="19.43" shape="133.27,-0.97 128.00,-1.75 124.23,-4.02 121.97,-7.79 121.20,-13.04"/>
    </edge>
    <edge id=":J10_6" function="internal">
        <lane id=":J10_6_0" index="0" speed="6.57" length="9.17" shape="127.60,-13.06 127.96,-10.59 129.03,-8.81 130.81,-7.74 133.30,-7.37"/>
    </edge>
    <edge id=":J10_7" function="internal">
        <lane id=":J10_7_0" index="0" speed="13.89" length="20.87" shape="127.60,-13.06 127.65,7.81"/>
    </edge>
    <edge id=":J10_8" function="internal">
        <lane id=":J10_8_0" index="0" speed="9.25" length="19.38" shape="124.40,-13.05 123.66,-7.79 121.42,-4.04 117.67,-1.78 112.41,-1.03"/>
    </edge>
    <edge id=":J10_9" function="internal">
        <lane id=":J10_9_0" index="0" speed="6.50" length="9.03" shape="112.41,-7.43 114.86,-7.78 116.61,-8.83 117.65,-10.58 118.00,-13.03"/>
    </edge>
    <edge id=":J10_10" function="internal">
        <lane id=":J10_10_0" index="0" speed="13.89" length="20.89" shape="112.41,-7.43 133.30,-7.37"/>
    </edge>
    <edge id=":J10_11" function="internal">
        <lane id=":J10_11_0" index="0" speed="9.28" length="19.41" shape="112.41,-4.23 117.67,-3.48 121.43,-1.22 123.69,2.54 124.45,7.81"/>
    </edge>
    <edge id=":J11_0" function="internal">
        <lane id=":J11_0_0" index="0" speed="6.55" length="9.12" shape="200.83,8.18 200.47,5.73 199.40,3.98 197.62,2.93 195.12,2.56"/>
    </edge>
    <edge id=":J11_1" function="internal">
        <lane id=":J11_1_0" index="0" speed="13.89" length="20.80" shape="200.83,8.18 200.78,-12.62"/>
        <lane id=":J11_1_1" index="1" speed="13.89" length="20.80" shape="204.03,8.17 203.98,-12.63"/>
    </edge>
    <edge id=":J11_3" function="internal">
        <lane id=":J11_3_0" index="0" speed="13.89" length="20.79" shape="210.38,-12.64 210.43,8.15"/>
    </edge>
    <edge id=":J11_4" function="internal">
        <lane id=":J11_4_0" index="0" speed="9.25" length="4.99" shape="207.18,-12.63 206.48,-7.69"/>
    </edge>
    <edge id=":J11_7" function="internal">
        <lane id=":J11_7_0" index="0" speed="9.25" length="14.42" shape="206.48,-7.69 206.43,-7.36 204.18,-3.60 200.42,-1.36 195.14,-0.64"/>
    </edge>
    <edge id=":J11_5" function="internal">
        <lane id=":J11_5_0" index="0" speed="6.49" length="9.03" shape="195.18,-7.04 197.63,-7.37 199.38,-8.42 200.43,-10.17 200.78,-12.62"/>
    </edge>
    <edge id=":J11_6" function="internal">
        <lane id=":J11_6_0" index="0" speed="9.29" length="19.37" shape="195.16,-3.84 200.43,-3.06 204.20,-0.81 206.46,2.94 207.23,8.16"/>
    </edge>
    <edge id=":J12_0" function="internal">
        <lane id=":J12_0_0" index="0" speed="8.96" length="18.11" shape="-42.15,-58.67 -41.47,-63.58 -39.38,-67.10 -35.88,-69.21 -30.97,-69.92"/>
        <lane id=":J12_0_1" index="1" speed="7.66" length="12.93" shape="-38.95,-58.68 -38.46,-62.19 -36.97,-64.70 -34.47,-66.21 -30.96,-66.72"/>
    </edge>
    <edge id=":J12_2" function="internal">
        <lane id=":J12_2_0" index="0" speed="3.90" length="2.59" shape="-30.95,-60.32 -31.65,-60.22 -32.15,-59.92 -32.45,-59.41 -32.55,-58.71"/>
        <lane id=":J12_2_1" index="1" speed="6.08" length="7.76" shape="-30.96,-63.52 -33.06,-63.22 -34.56,-62.31 -35.46,-60.80 -35.75,-58.70"/>
    </edge>
    <edge id=":J13_0" function="internal">
        <lane id=":J13_0_0" index="0" speed="6.53" length="9.08" shape="56.11,-60.41 53.66,-60.06 51.91,-59.01 50.85,-57.24 50.49,-54.76"/>
    </edge>
    <edge id=":J13_1" function="internal">
        <lane id=":J13_1_0" index="0" speed="13.89" length="20.81" shape="56.11,-60.41 35.30,-60.41"/>
        <lane id=":J13_1_1" index="1" speed="13.89" length="20.81" shape="56.11,-63.61 35.30,-63.61"/>
    </edge>
    <edge id=":J13_3" function="internal">
        <lane id=":J13_3_0" index="0" speed="13.89" length="20.83" shape="35.29,-70.01 56.12,-70.01"/>
    </edge>
    <edge id=":J13_4" function="internal">
        <lane id=":J13_4_0" index="0" speed="9.25" length="5.06" shape="35.30,-66.81 40.31,-66.11"/>
    </edge>
    <edge id=":J13_7" function="internal">
        <lane id=":J13_7_0" index="0" speed="9.25" length="14.34" shape="40.31,-66.11 40.56,-66.07 44.32,-63.81 46.56,-60.05 47.29,-54.78"/>
    </edge>
    <edge id=":J13_5" function="internal">
        <lane id=":J13_5_0" index="0" speed="6.49" length="9.03" shape="40.89,-54.81 40.55,-57.27 39.51,-59.02 37.76,-60.07 35.30,-60.41"/>
    </edge>
    <edge id=":J13_6" function="internal">
        <lane id=":J13_6_0" index="0" speed="9.28" length="19.38" shape="44.09,-54.80 44.86,-60.06 47.13,-63.82 50.88,-66.07 56.12,-66.81"/>
    </edge>
    <edge id=":J14_0" function="internal">
        <lane id=":J14_0_0" index="0" speed="6.53" length="9.06" shape="117.86,-54.69 117.51,-57.15 116.45,-58.91 114.70,-59.97 112.25,-60.33"/>
    </edge>
    <edge id=":J14_1" function="internal">
        <lane id=":J14_1_0" index="0" speed="9.26" length="19.36" shape="121.06,-54.70 121.80,-59.96 124.04,-63.71 127.78,-65.97 133.03,-66.74"/>
    </edge>
    <edge id=":J14_2" function="internal">
        <lane id=":J14_2_0" index="0" speed="6.51" length="9.03" shape="133.05,-60.34 130.60,-59.98 128.85,-58.93 127.81,-57.17 127.46,-54.72"/>
    </edge>
    <edge id=":J14_3" function="internal">
        <lane id=":J14_3_0" index="0" speed="13.89" length="20.79" shape="133.05,-60.34 112.25,-60.33"/>
        <lane id=":J14_3_1" index="1" speed="13.89" length="20.79" shape="133.04,-63.54 112.26,-63.53"/>
    </edge>
    <edge id=":J14_5" function="internal">
        <lane id=":J14_5_0" index="0" speed="13.89" length="20.75" shape="112.27,-69.93 133.02,-69.94"/>
    </edge>
    <edge id=":J14_6" function="internal">
        <lane id=":J14_6_0" index="0" speed="9.27" length="4.93" shape="112.26,-66.73 117.14,-66.02"/>
    </edge>
    <edge id=":J14_7" function="internal">
        <lane id=":J14_7_0" index="0" speed="9.27" length="14.41" shape="117.14,-66.02 117.50,-65.97 121.24,-63.71 123.50,-59.96 124.26,-54.71"/>
    </edge>
    <edge id=":J16_0" function="internal">
        <lane id=":J16_0_0" index="0" speed="3.90" length="2.58" shape="200.67,-58.94 200.56,-59.64 200.26,-60.13 199.76,-60.43 199.06,-60.53"/>
        <lane id=":J16_0_1" index="1" speed="6.08" length="7.74" shape="203.87,-58.94 203.56,-61.04 202.66,-62.54 201.15,-63.44 199.05,-63.73"/>
    </edge>
    <edge id=":J16_2" function="internal">
        <lane id=":J16_2_0" index="0" speed="8.96" length="18.07" shape="199.03,-70.13 203.94,-69.45 207.44,-67.35 209.55,-63.86 210.27,-58.96"/>
        <lane id=":J16_2_1" index="1" speed="7.66" length="12.91" shape="199.04,-66.93 202.55,-66.44 205.05,-64.95 206.56,-62.45 207.07,-58.95"/>
    </edge>
    <edge id=":J2_0" function="internal">
        <lane id=":J2_0_0" index="0" speed="13.89" length="20.68" shape="133.51,130.74 112.82,130.79"/>
    </edge>
    <edge id=":J2_1" function="internal">
        <lane id=":J2_1_0" index="0" speed="9.26" length="4.88" shape="133.51,127.54 128.69,126.84"/>
    </edge>
    <edge id=":J2_7" function="internal">
        <lane id=":J2_7_0" index="0" speed="9.26" length="14.43" shape="128.69,126.84 128.28,126.78 124.54,124.53 122.29,120.79 121.53,115.56"/>
    </edge>
    <edge id=":J2_2" function="internal">
        <lane id=":J2_2_0" index="0" speed="6.52" length="9.02" shape="127.93,115.54 128.28,117.98 129.33,119.73 131.08,120.78 133.52,121.14"/>
    </edge>
    <edge id=":J2_3" function="internal">
        <lane id=":J2_3_0" index="0" speed="9.26" length="19.31" shape="124.73,115.55 124.00,120.79 121.76,124.54 118.03,126.80 112.80,127.59"/>
    </edge>
    <edge id=":J2_4" function="internal">
        <lane id=":J2_4_0" index="0" speed="6.51" length="9.01" shape="112.76,121.19 115.20,120.82 116.94,119.76 117.99,118.01 118.33,115.57"/>
    </edge>
    <edge id=":J2_5" function="internal">
        <lane id=":J2_5_0" index="0" speed="13.89" length="20.75" shape="112.76,121.19 133.52,121.14"/>
        <lane id=":J2_5_1" index="1" speed="13.89" length="20.75" shape="112.78,124.39 133.52,124.34"/>
    </edge>
    <edge id=":J3_0" function="internal">
        <lane id=":J3_0_0" index="0" speed="8.96" length="18.12" shape="210.77,119.63 210.08,124.55 207.98,128.06 204.47,130.16 199.55,130.86"/>
        <lane id=":J3_0_1" index="1" speed="7.66" length="12.94" shape="207.57,119.64 207.08,123.15 205.58,125.66 203.07,127.16 199.56,127.66"/>
    </edge>
    <edge id=":J3_2" function="internal">
        <lane id=":J3_2_0" index="0" speed="3.90" length="2.59" shape="199.57,121.26 200.27,121.16 200.77,120.86 201.07,120.36 201.17,119.65"/>
        <lane id=":J3_2_1" index="1" speed="6.08" length="7.77" shape="199.56,124.46 201.67,124.16 203.18,123.26 204.08,121.75 204.37,119.65"/>
    </edge>
    <edge id=":J4_0" function="internal">
        <lane id=":J4_0_0" index="0" speed="6.58" length="9.21" shape="55.28,69.01 52.78,69.37 50.99,70.43 49.91,72.21 49.53,74.70"/>
    </edge>
    <edge id=":J4_1" function="internal">
        <lane id=":J4_1_0" index="0" speed="13.89" length="20.91" shape="55.28,69.01 34.37,69.01"/>
    </edge>
    <edge id=":J4_2" function="internal">
        <lane id=":J4_2_0" index="0" speed="9.24" length="19.42" shape="55.28,65.81 50.00,65.06 46.25,62.79 44.02,59.02 43.31,53.74"/>
    </edge>
    <edge id=":J4_3" function="internal">
        <lane id=":J4_3_0" index="0" speed="6.49" length="9.03" shape="49.71,53.80 50.04,56.25 51.08,58.01 52.82,59.06 55.28,59.41"/>
    </edge>
    <edge id=":J4_4" function="internal">
        <lane id=":J4_4_0" index="0" speed="13.89" length="20.91" shape="49.71,53.80 49.53,74.70"/>
    </edge>
    <edge id=":J4_5" function="internal">
        <lane id=":J4_5_0" index="0" speed="9.31" length="19.47" shape="46.51,53.77 45.71,59.04 43.42,62.80 39.64,65.06 34.37,65.81"/>
    </edge>
    <edge id=":J4_6" function="internal">
        <lane id=":J4_6_0" index="0" speed="6.59" length="9.21" shape="34.37,59.41 36.86,59.05 38.65,57.98 39.74,56.20 40.11,53.71"/>
    </edge>
    <edge id=":J4_7" function="internal">
        <lane id=":J4_7_0" index="0" speed="13.89" length="20.91" shape="34.37,59.41 55.28,59.41"/>
    </edge>
    <edge id=":J4_8" function="internal">
        <lane id=":J4_8_0" index="0" speed="9.24" length="19.42" shape="34.37,62.61 39.64,63.36 43.39,65.63 45.62,69.40 46.33,74.68"/>
    </edge>
    <edge id=":J4_9" function="internal">
        <lane id=":J4_9_0" index="0" speed="6.49" length="9.03" shape="39.93,74.62 39.60,72.17 38.56,70.41 36.82,69.36 34.37,69.01"/>
    </edge>
    <edge id=":J4_10" function="internal">
        <lane id=":J4_10_0" index="0" speed="13.89" length="20.91" shape="39.93,74.62 40.11,53.71"/>
    </edge>
    <edge id=":J4_11" function="internal">
        <lane id=":J4_11_0" index="0" speed="9.31" length="19.47" shape="43.13,74.65 43.93,69.38 46.22,65.62 50.00,63.36 55.28,62.61"/>
    </edge>
    <edge id=":J5_0" function="internal">
        <lane id=":J5_0_0" index="0" speed="6.54" length="9.12" shape="118.19,74.68 117.83,72.20 116.77,70.43 115.01,69.36 112.55,69.01"/>
    </edge>
    <edge id=":J5_1" function="internal">
        <lane id=":J5_1_0" index="0" speed="13.89" length="20.87" shape="118.19,74.68 118.14,53.81"/>
    </edge>
    <edge id=":J5_2" function="internal">
        <lane id=":J5_2_0" index="0" speed="9.25" length="19.41" shape="121.39,74.67 122.13,69.39 124.38,65.63 128.14,63.39 133.42,62.66"/>
    </edge>
    <edge id=":J5_3" function="internal">
        <lane id=":J5_3_0" index="0" speed="6.49" length="9.03" shape="133.39,69.06 130.93,69.40 129.18,70.44 128.14,72.19 127.79,74.65"/>
    </edge>
    <edge id=":J5_4" function="internal">
        <lane id=":J5_4_0" index="0" speed="13.89" length="20.84" shape="133.39,69.06 112.55,69.01"/>
    </edge>
    <edge id=":J5_5" function="internal">
        <lane id=":J5_5_0" index="0" speed="9.30" length="19.42" shape="133.40,65.86 128.13,65.08 124.37,62.82 122.10,59.06 121.34,53.80"/>
    </edge>
    <edge id=":J5_6" function="internal">
        <lane id=":J5_6_0" index="0" speed="6.56" length="9.15" shape="127.74,53.79 128.10,56.26 129.17,58.03 130.95,59.10 133.43,59.46"/>
    </edge>
    <edge id=":J5_7" function="internal">
        <lane id=":J5_7_0" index="0" speed="13.89" length="20.86" shape="127.74,53.79 127.79,74.65"/>
    </edge>
    <edge id=":J5_8" function="internal">
        <lane id=":J5_8_0" index="0" speed="9.26" length="19.37" shape="124.54,53.79 123.80,59.05 121.55,62.81 117.80,65.06 112.55,65.81"/>
    </edge>
    <edge id=":J5_9" function="internal">
        <lane id=":J5_9_0" index="0" speed="6.50" length="9.03" shape="112.55,59.41 115.00,59.06 116.75,58.01 117.79,56.26 118.14,53.81"/>
    </edge>
    <edge id=":J5_10" function="internal">
        <lane id=":J5_10_0" index="0" speed="13.89" length="20.89" shape="112.55,59.41 133.43,59.46"/>
    </edge>
    <edge id=":J5_11" function="internal">
        <lane id=":J5_11_0" index="0" speed="9.28" length="19.41" shape="112.55,62.61 117.80,63.36 121.56,65.62 123.83,69.39 124.59,74.66"/>
    </edge>
    <edge id=":J6_0" function="internal">
        <lane id=":J6_0_0" index="0" speed="6.56" length="9.13" shape="55.86,2.19 53.37,2.54 51.58,3.59 50.50,5.35 50.13,7.81"/>
    </edge>
    <edge id=":J6_1" function="internal">
        <lane id=":J6_1_0" index="0" speed="13.89" length="20.95" shape="55.86,2.19 34.91,2.06"/>
    </edge>
    <edge id=":J6_2" function="internal">
        <lane id=":J6_2_0" index="0" speed="9.25" length="19.41" shape="55.85,-1.01 50.59,-1.76 46.84,-4.02 44.60,-7.79 43.87,-13.07"/>
    </edge>
    <edge id=":J6_3" function="internal">
        <lane id=":J6_3_0" index="0" speed="6.50" length="9.04" shape="50.27,-13.03 50.61,-10.57 51.65,-8.82 53.40,-7.76 55.85,-7.41"/>
    </edge>
    <edge id=":J6_4" function="internal">
        <lane id=":J6_4_0" index="0" speed="13.89" length="20.84" shape="50.27,-13.03 50.13,7.81"/>
    </edge>
    <edge id=":J6_5" function="internal">
        <lane id=":J6_5_0" index="0" speed="9.25" length="19.41" shape="47.07,-13.05 46.29,-7.78 44.01,-4.04 40.23,-1.83 34.95,-1.14"/>
    </edge>
    <edge id=":J6_6" function="internal">
        <lane id=":J6_6_0" index="0" speed="6.49" length="9.03" shape="35.03,-7.54 37.49,-7.86 39.25,-8.89 40.31,-10.63 40.67,-13.08"/>
    </edge>
    <edge id=":J6_7" function="internal">
        <lane id=":J6_7_0" index="0" speed="13.89" length="20.82" shape="35.03,-7.54 55.85,-7.41"/>
    </edge>
    <edge id=":J6_8" function="internal">
        <lane id=":J6_8_0" index="0" speed="9.28" length="19.38" shape="34.99,-4.34 40.25,-3.53 44.00,-1.24 46.22,2.53 46.93,7.78"/>
    </edge>
    <edge id=":J6_9" function="internal">
        <lane id=":J6_9_0" index="0" speed="6.53" length="9.09" shape="40.53,7.72 40.19,5.27 39.15,3.51 37.39,2.44 34.91,2.06"/>
    </edge>
    <edge id=":J6_10" function="internal">
        <lane id=":J6_10_0" index="0" speed="13.89" length="20.81" shape="40.53,7.72 40.67,-13.08"/>
    </edge>
    <edge id=":J6_11" function="internal">
        <lane id=":J6_11_0" index="0" speed="9.30" length="19.39" shape="43.73,7.75 44.53,2.52 46.81,-1.22 50.59,-3.46 55.85,-4.21"/>
    </edge>
    <edge id=":J7_0" function="internal">
        <lane id=":J7_0_0" index="0" speed="13.89" length="20.79" shape="-41.67,74.63 -41.72,53.84"/>
        <lane id=":J7_0_1" index="1" speed="13.89" length="20.79" shape="-38.47,74.62 -38.52,53.83"/>
    </edge>
    <edge id=":J7_2" function="internal">
        <lane id=":J7_2_0" index="0" speed="9.26" length="4.99" shape="-38.47,74.62 -37.77,69.68"/>
    </edge>
    <edge id=":J7_8" function="internal">
        <lane id=":J7_8_0" index="0" speed="9.26" length="14.37" shape="-37.77,69.68 -37.73,69.37 -35.48,65.61 -31.73,63.36 -26.48,62.61"/>
    </edge>
    <edge id=":J7_3" function="internal">
        <lane id=":J7_3_0" index="0" speed="6.50" length="9.03" shape="-26.48,69.01 -28.93,69.36 -30.68,70.41 -31.73,72.16 -32.07,74.61"/>
    </edge>
    <edge id=":J7_4" function="internal">
        <lane id=":J7_4_0" index="0" speed="9.27" length="19.36" shape="-26.48,65.81 -31.73,65.06 -35.49,62.82 -37.75,59.07 -38.52,53.83"/>
    </edge>
    <edge id=":J7_5" function="internal">
        <lane id=":J7_5_0" index="0" speed="6.52" length="9.06" shape="-32.12,53.81 -31.76,56.26 -30.70,58.01 -28.94,59.06 -26.48,59.41"/>
    </edge>
    <edge id=":J7_6" function="internal">
        <lane id=":J7_6_0" index="0" speed="13.89" length="20.80" shape="-32.12,53.81 -32.07,74.61"/>
        <lane id=":J7_6_1" index="1" speed="13.89" length="20.80" shape="-35.32,53.82 -35.27,74.62"/>
    </edge>
    <edge id=":J8_0" function="internal">
        <lane id=":J8_0_0" index="0" speed="13.89" length="20.92" shape="54.82,131.15 33.91,131.18"/>
    </edge>
    <edge id=":J8_1" function="internal">
        <lane id=":J8_1_0" index="0" speed="9.23" length="5.17" shape="54.80,127.95 49.68,127.25"/>
    </edge>
    <edge id=":J8_7" function="internal">
        <lane id=":J8_7_0" index="0" speed="9.23" length="14.30" shape="49.68,127.25 49.51,127.23 45.74,124.98 43.50,121.21 42.79,115.91"/>
    </edge>
    <edge id=":J8_2" function="internal">
        <lane id=":J8_2_0" index="0" speed="6.48" length="9.03" shape="49.19,115.97 49.52,118.42 50.56,120.17 52.31,121.22 54.76,121.55"/>
    </edge>
    <edge id=":J8_3" function="internal">
        <lane id=":J8_3_0" index="0" speed="9.29" length="19.42" shape="45.99,115.94 45.20,121.22 42.92,124.99 39.16,127.24 33.92,127.98"/>
    </edge>
    <edge id=":J8_4" function="internal">
        <lane id=":J8_4_0" index="0" speed="6.55" length="9.13" shape="33.95,121.58 36.40,121.23 38.15,120.16 39.22,118.38 39.59,115.89"/>
    </edge>
    <edge id=":J8_5" function="internal">
        <lane id=":J8_5_0" index="0" speed="13.89" length="20.83" shape="33.95,121.58 54.76,121.55"/>
        <lane id=":J8_5_1" index="1" speed="13.89" length="20.83" shape="33.93,124.78 54.78,124.75"/>
    </edge>
    <edge id=":J9_0" function="internal">
        <lane id=":J9_0_0" index="0" speed="13.89" length="20.78" shape="-41.86,6.86 -41.94,-13.93"/>
        <lane id=":J9_0_1" index="1" speed="13.89" length="20.78" shape="-38.66,6.85 -38.74,-13.94"/>
    </edge>
    <edge id=":J9_2" function="internal">
        <lane id=":J9_2_0" index="0" speed="9.23" length="4.97" shape="-38.66,6.85 -37.97,1.92"/>
    </edge>
    <edge id=":J9_8" function="internal">
        <lane id=":J9_8_0" index="0" speed="9.23" length="14.50" shape="-37.97,1.92 -37.92,1.55 -35.65,-2.21 -31.87,-4.44 -26.57,-5.13"/>
    </edge>
    <edge id=":J9_3" function="internal">
        <lane id=":J9_3_0" index="0" speed="6.47" length="9.03" shape="-26.65,1.27 -29.11,1.59 -30.87,2.63 -31.91,4.37 -32.26,6.83"/>
    </edge>
    <edge id=":J9_4" function="internal">
        <lane id=":J9_4_0" index="0" speed="9.33" length="19.39" shape="-26.61,-1.93 -31.90,-2.74 -35.68,-5.01 -37.96,-8.74 -38.74,-13.94"/>
    </edge>
    <edge id=":J9_5" function="internal">
        <lane id=":J9_5_0" index="0" speed="6.60" length="9.20" shape="-32.34,-13.97 -31.97,-11.53 -30.87,-9.77 -29.06,-8.71 -26.53,-8.33"/>
    </edge>
    <edge id=":J9_6" function="internal">
        <lane id=":J9_6_0" index="0" speed="13.89" length="20.80" shape="-32.34,-13.97 -32.26,6.83"/>
        <lane id=":J9_6_1" index="1" speed="13.89" length="20.80" shape="-35.54,-13.96 -35.46,6.84"/>
    </edge>

    <edge id="-E0" from="J0" to="J5" priority="-1">
        <lane id="-E0_0" index="0" speed="13.89" length="61.96" shape="195.34,69.36 133.39,69.06"/>
        <lane id="-E0_1" index="1" speed="13.89" length="61.96" shape="195.36,66.16 133.40,65.86"/>
    </edge>
    <edge id="-E1" from="J1" to="J7" priority="-1">
        <lane id="-E1_0" index="0" speed="13.89" length="45.09" shape="-41.59,119.72 -41.67,74.63"/>
        <lane id="-E1_1" index="1" speed="13.89" length="45.09" shape="-38.39,119.71 -38.47,74.62"/>
    </edge>
    <edge id="-E10" from="J3" to="J2" priority="-1">
        <lane id="-E10_0" index="0" speed="13.89" length="66.05" shape="199.55,130.86 133.51,130.74"/>
        <lane id="-E10_1" index="1" speed="13.89" length="66.05" shape="199.56,127.66 133.51,127.54"/>
    </edge>
    <edge id="-E11" from="J9" to="J7" priority="-1">
        <lane id="-E11_0" index="0" speed="13.89" length="46.99" shape="-32.26,6.83 -32.12,53.81"/>
        <lane id="-E11_1" index="1" speed="13.89" length="46.99" shape="-35.46,6.84 -35.32,53.82"/>
    </edge>
    <edge id="-E12" from="J6" to="J9" priority="-1">
        <lane id="-E12_0" index="0" speed="13.89" length="61.57" shape="34.91,2.06 -26.65,1.27"/>
        <lane id="-E12_1" index="1" speed="13.89" length="61.57" shape="34.95,-1.14 -26.61,-1.93"/>
    </edge>
    <edge id="-E13" from="J10" to="J6" priority="-1">
        <lane id="-E13_0" index="0" speed="13.89" length="56.56" shape="112.41,2.17 55.86,2.19"/>
        <lane id="-E13_1" index="1" speed="13.89" length="56.56" shape="112.41,-1.03 55.85,-1.01"/>
    </edge>
    <edge id="-E14" from="J5" to="J10" priority="-1">
        <lane id="-E14_0" index="0" speed="13.89" length="45.98" shape="118.14,53.81 118.05,7.83"/>
        <lane id="-E14_1" index="1" speed="13.89" length="45.98" shape="121.34,53.80 121.25,7.82"/>
    </edge>
    <edge id="-E15" from="J11" to="J0" priority="-1">
        <lane id="-E15_0" index="0" speed="13.89" length="45.99" shape="210.43,8.15 210.59,54.14"/>
        <lane id="-E15_1" index="1" speed="13.89" length="45.99" shape="207.23,8.16 207.39,54.15"/>
    </edge>
    <edge id="-E16" from="J11" to="J10" priority="-1">
        <lane id="-E16_0" index="0" speed="13.89" length="61.87" shape="195.12,2.56 133.25,2.23"/>
        <lane id="-E16_1" index="1" speed="13.89" length="61.87" shape="195.14,-0.64 133.27,-0.97"/>
    </edge>
    <edge id="-E17" from="J12" to="J9" priority="-1">
        <lane id="-E17_0" index="0" speed="13.89" length="44.74" shape="-32.55,-58.71 -32.34,-13.97"/>
        <lane id="-E17_1" index="1" speed="13.89" length="44.74" shape="-35.75,-58.70 -35.54,-13.96"/>
    </edge>
    <edge id="-E18" from="J13" to="J6" priority="-1">
        <lane id="-E18_0" index="0" speed="13.89" length="41.73" shape="50.49,-54.76 50.27,-13.03"/>
        <lane id="-E18_1" index="1" speed="13.89" length="41.73" shape="47.29,-54.78 47.07,-13.05"/>
    </edge>
    <edge id="-E19" from="J14" to="J10" priority="-1">
        <lane id="-E19_0" index="0" speed="13.89" length="41.66" shape="127.46,-54.72 127.60,-13.06"/>
        <lane id="-E19_1" index="1" speed="13.89" length="41.66" shape="124.26,-54.71 124.40,-13.05"/>
    </edge>
    <edge id="-E2" from="J5" to="J4" priority="-1" length="70.00">
        <lane id="-E2_0" index="0" speed="13.89" length="70.00" shape="112.55,69.01 55.28,69.01"/>
        <lane id="-E2_1" index="1" speed="13.89" length="70.00" shape="112.55,65.81 55.28,65.81"/>
    </edge>
    <edge id="-E20" from="J16" to="J11" priority="-1">
        <lane id="-E20_0" index="0" speed="13.89" length="46.32" shape="210.27,-58.96 210.38,-12.64"/>
        <lane id="-E20_1" index="1" speed="13.89" length="46.32" shape="207.07,-58.95 207.18,-12.63"/>
    </edge>
    <edge id="-E21" from="J13" to="J12" priority="-1">
        <lane id="-E21_0" index="0" speed="13.89" length="66.26" shape="35.30,-60.41 -30.95,-60.32"/>
        <lane id="-E21_1" index="1" speed="13.89" length="66.26" shape="35.30,-63.61 -30.96,-63.52"/>
    </edge>
    <edge id="-E22" from="J14" to="J13" priority="-1">
        <lane id="-E22_0" index="0" speed="13.89" length="56.14" shape="112.25,-60.33 56.11,-60.41"/>
        <lane id="-E22_1" index="1" speed="13.89" length="56.14" shape="112.26,-63.53 56.11,-63.61"/>
    </edge>
    <edge id="-E23" from="J16" to="J14" priority="-1">
        <lane id="-E23_0" index="0" speed="13.89" length="66.02" shape="199.06,-60.53 133.05,-60.34"/>
        <lane id="-E23_1" index="1" speed="13.89" length="66.02" shape="199.05,-63.73 133.04,-63.54"/>
    </edge>
    <edge id="-E3" from="J6" to="J4" priority="-1" length="70.00">
        <lane id="-E3_0" index="0" speed="13.89" length="70.00" shape="50.13,7.81 49.71,53.80"/>
        <lane id="-E3_1" index="1" speed="13.89" length="70.00" shape="46.93,7.78 46.51,53.77"/>
    </edge>
    <edge id="-E4" from="J7" to="J4" priority="-1" length="70.00">
        <lane id="-E4_0" index="0" speed="13.89" length="70.00" shape="-26.48,59.41 34.37,59.41"/>
        <lane id="-E4_1" index="1" speed="13.89" length="70.00" shape="-26.48,62.61 34.37,62.61"/>
    </edge>
    <edge id="-E5" from="J4" to="J8" priority="-1" length="70.00">
        <lane id="-E5_0" index="0" speed="13.89" length="70.00" shape="49.53,74.70 49.19,115.97"/>
        <lane id="-E5_1" index="1" speed="13.89" length="70.00" shape="46.33,74.68 45.99,115.94"/>
    </edge>
    <edge id="-E6" from="J8" to="J1" priority="-1">
        <lane id="-E6_0" index="0" speed="13.89" length="64.35" shape="33.91,131.18 -30.44,130.90"/>
        <lane id="-E6_1" index="1" speed="13.89" length="64.35" shape="33.92,127.98 -30.43,127.70"/>
    </edge>
    <edge id="-E7" from="J2" to="J5" priority="-1">
        <lane id="-E7_0" index="0" speed="13.89" length="40.89" shape="118.33,115.57 118.19,74.68"/>
        <lane id="-E7_1" index="1" speed="13.89" length="40.89" shape="121.53,115.56 121.39,74.67"/>
    </edge>
    <edge id="-E8" from="J2" to="J8" priority="-1">
        <lane id="-E8_0" index="0" speed="13.89" length="58.00" shape="112.82,130.79 54.82,131.15"/>