<?xml version="1.0" encoding="UTF-8"?>

<!-- generated on 2023-06-09 22:42:45.285882 by randomTrips.py UNKNOWN
  options: -n intersection_3.net.xml -r intersection_3.rou.xml -e 500
-->

<routes xmlns:xsi="http://www.w3.org/2001/XMLSchema-instance" xsi:noNamespaceSchemaLocation="http://sumo.dlr.de/xsd/routes_file.xsd">
    <trip id="0" depart="0.00" from="8934606#11" to="-24178682#7"/>
    <trip id="1" depart="1.00" from="-8962393#0" to="-8960794"/>
    <trip id="2" depart="2.00" from="8952775#5" to="8942860#1"/>
    <trip id="3" depart="3.00" from="8969974#9" to="-8934606#8"/>
    <trip id="4" depart="4.00" from="1115258972" to="-415864941#0"/>
    <trip id="5" depart="5.00" from="-8958247#1" to="415864947#0"/>
    <trip id="6" depart="6.00" from="-24178682#8" to="-8957697#2"/>
    <trip id="7" depart="7.00" from="8934978#0" to="415865355#1"/>
    <trip id="8" depart="8.00" from="-8958247#3" to="631839350"/>
    <trip id="9" depart="9.00" from="8961721#2" to="-241537665#1"/>
    <trip id="10" depart="10.00" from="8961436#3" to="8948541#1"/>
    <trip id="11" depart="11.00" from="-8969974#8" to="-8952760#10"/>
    <trip id="12" depart="12.00" from="95470001#3" to="-95469998#3"/>
    <trip id="13" depart="13.00" from="-8935890#0" to="-8936224#0"/>
    <trip id="14" depart="14.00" from="8966508#2" to="8932439#0"/>
    <trip id="15" depart="15.00" from="8961703" to="8952775#6"/>
    <trip id="16" depart="16.00" from="415864955#1" to="95470008#0"/>
    <trip id="17" depart="17.00" from="-95908207#1" to="415865358#2"/>
    <trip id="18" depart="18.00" from="8962413#3" to="8934606#2"/>
    <trip id="19" depart="19.00" from="8968595#1" to="572338906"/>
    <trip id="20" depart="20.00" from="8948170#0" to="-415914335#0"/>
    <trip id="21" depart="21.00" from="-8959190#1" to="-8969230#0"/>
    <trip id="22" depart="22.00" from="-8934606#2" to="-8961072"/>
    <trip id="23" depart="23.00" from="-8937665" to="-8966508#2"/>
    <trip id="24" depart="24.00" from="8934303#5" to="-95908208#1"/>
    <trip id="25" depart="25.00" from="-95470001#4" to="-8958895#1"/>
    <trip id="26" depart="26.00" from="-8962253#0" to="94458130#2"/>
    <trip id="27" depart="27.00" from="8934606#9" to="8934303#2"/>
    <trip id="28" depart="28.00" from="-8952760#11" to="8952775#6"/>
    <trip id="29" depart="29.00" from="-8950045#3" to="1113372748#1"/>
    <trip id="30" depart="30.00" from="95908207#8" to="8937665"/>
    <trip id="31" depart="31.00" from="415865004#1" to="8946339#1"/>
    <trip id="32" depart="32.00" from="8964592#1" to="8959190#3"/>
    <trip id="33" depart="33.00" from="-8959190#2" to="-415864944#0"/>
    <trip id="34" depart="34.00" from="-8969230#5" to="-8963695#0"/>
    <trip id="35" depart="35.00" from="-8957697#1" to="95469998#10"/>
    <trip id="36" depart="36.00" from="8969437#3" to="-8969974#5"/>
    <trip id="37" depart="37.00" from="8935890#1" to="1115258969"/>
    <trip id="38" depart="38.00" from="939319020#3" to="367183821#1"/>
    <trip id="39" depart="39.00" from="-8961721#8" to="-8961721#8"/>
    <trip id="40" depart="40.00" from="415865351#0" to="-8962413#5"/>
    <trip id="41" depart="41.00" from="415914337#1" to="93291772#1"/>
    <trip id="42" depart="42.00" from="1066782259" to="-8960173#0"/>
    <trip id="43" depart="43.00" from="966826659#0" to="415864954#0"/>
    <trip id="44" depart="44.00" from="-8935512#2" to="-415914337#0"/>
    <trip id="45" depart="45.00" from="-8939714#3" to="8934978#1"/>
    <trip id="46" depart="46.00" from="8960794" to="24178682#1"/>
    <trip id="47" depart="47.00" from="-8928839" to="1113372749#1"/>
    <trip id="48" depart="48.00" from="95908210#2" to="415864993#0"/>
    <trip id="49" depart="49.00" from="95470006#4" to="8969230#0"/>
    <trip id="50" depart="50.00" from="-241541028#1" to="8952760#7"/>
    <trip id="51" depart="51.00" from="8941790#6" to="415865349"/>
    <trip id="52" depart="52.00" from="-8962253#0" to="8937680"/>
    <trip id="53" depart="53.00" from="-8939874" to="285929090#1"/>
    <trip id="54" depart="54.00" from="24178682#6" to="95470001#0"/>
    <trip id="55" depart="55.00" from="8969437#3" to="-8962496"/>
    <trip id="56" depart="56.00" from="367183847#3" to="-8956932#0"/>
    <trip id="57" depart="57.00" from="939319020#1" to="8969437#0"/>
    <trip id="58" depart="58.00" from="-8966508#1" to="8937477#1"/>
    <trip id="59" depart="59.00" from="631839346" to="-8952760#0"/>
    <trip id="60" depart="60.00" from="8957566#7" to="415865351#1"/>
    <trip id="61" depart="61.00" from="8958895#1" to="415864993#2"/>
    <trip id="62" depart="62.00" from="-1066782258" to="-939319020#1"/>
    <trip id="63" depart="63.00" from="-24178682#12" to="94458116#0"/>
    <trip id="64" depart="64.00" from="8969974#0" to="8963601#1"/>
    <trip id="65" depart="65.00" from="-8968544#4" to="-8927885#1"/>
    <trip id="66" depart="66.00" from="8969437#5" to="95469998#5"/>
    <trip id="67" depart="67.00" from="-8934606#8" to="394438239#1"/>
    <trip id="68" depart="68.00" from="-8934303#0" to="8957697#5"/>
    <trip id="69" depart="69.00" from="8957697#1" to="-8942861#0"/>
    <trip id="70" depart="70.00" from="367175691#0" to="415865358#0"/>
    <trip id="71" depart="71.00" from="-8961721#8" to="8969437#2"/>
    <trip id="72" depart="72.00" from="1115258973#0" to="-8958895#3"/>
    <trip id="73" depart="73.00" from="415864958#1" to="8952775#6"/>
    <trip id="74" depart="74.00" from="-8957566#15" to="-8969974#2"/>
    <trip id="75" depart="75.00" from="95908210#1" to="8939825"/>
    <trip id="76" depart="76.00" from="241539885#0" to="415864958#3"/>
    <trip id="77" depart="77.00" from="-8941790#7" to="-8960796#0"/>
    <trip id="78" depart="78.00" from="-8969974#6" to="631839349"/>
    <trip id="79" depart="79.00" from="-8959190#3" to="-8960173#1"/>
    <trip id="80" depart="80.00" from="-8934303#2" to="8935867"/>
    <trip id="81" depart="81.00" from="-8959190#2" to="93291795"/>
    <trip id="82" depart="82.00" from="8968565" to="-8934303#0"/>
    <trip id="83" depart="83.00" from="-8960389" to="8942440#1"/>
    <trip id="84" depart="84.00" from="-8957697#5" to="-8946028#2"/>
    <trip id="85" depart="85.00" from="94458130#0" to="517506924#2"/>
    <trip id="86" depart="86.00" from="367175683#1" to="8960438"/>
    <trip id="87" depart="87.00" from="8961721#0" to="-8957566#4"/>
    <trip id="88" depart="88.00" from="-8936611" to="24178682#7"/>
    <trip id="89" depart="89.00" from="1115258973#1" to="367183826#2"/>
    <trip id="90" depart="90.00" from="8952760#8" to="8942564#2"/>
    <trip id="91" depart="91.00" from="95908207#2" to="-8936611"/>
    <trip id="92" depart="92.00" from="1113372748#0" to="-95469998#6"/>
    <trip id="93" depart="93.00" from="8968595#1" to="-8962253#1"/>
    <trip id="94" depart="94.00" from="-8956031#1" to="367175683#1"/>
    <trip id="95" depart="95.00" from="1115258972" to="-8966508#2"/>
    <trip id="96" depart="96.00" from="-8961069#0" to="939319024#4"/>
    <trip id="97" depart="97.00" from="241541029#3" to="8969230#0"/>
    <trip id="98" depart="98.00" from="415864979#0" to="-415914337#3"/>
    <trip id="99" depart="99.00" from="968955196" to="8964308#0"/>
    <trip id="100" depart="100.00" from="95470006#1" to="94458115#0"/>
    <trip id="101" depart="101.00" from="8967811#1" to="-8952775#2"/>
    <trip id="102" depart="102.00" from="367183824#1" to="-8958897"/>
    <trip id="103" depart="103.00" from="1067588364" to="-8927929#0"/>
    <trip id="104" depart="104.00" from="-95908207#1" to="95908207#4"/>
    <trip id="105" depart="105.00" from="-8961724" to="8960438"/>
    <trip id="106" depart="106.00" from="24178682#7" to="24178682#10"/>
    <trip id="107" depart="107.00" from="95470001#3" to="95908210#2"/>
    <trip id="108" depart="108.00" from="415865004#0" to="8952760#4"/>
    <trip id="109" depart="109.00" from="-8948541#1" to="-8969260#0"/>
    <trip id="110" depart="110.00" from="95470006#1" to="614540747#0"/>
    <trip id="111" depart="111.00" from="415864958#4" to="8957566#2"/>
    <trip id="112" depart="112.00" from="-8927885#1" to="614926539#1"/>
    <trip id="113" depart="113.00" from="394436171" to="8968264"/>
    <trip id="114" depart="114.00" from="-8949002#2" to="95470002#1"/>
    <trip id="115" depart="115.00" from="-8934606#3" to="-8957566#13"/>
    <trip id="116" depart="116.00" from="517507459#0" to="8942826#1"/>
    <trip id="117" depart="117.00" from="-8960173#1" to="-8942158#2"/>
    <trip id="118" depart="118.00" from="8969974#7" to="-8961721#8"/>
    <trip id="119" depart="119.00" from="517506924#2" to="8934606#3"/>
    <trip id="120" depart="120.00" from="1115258969" to="614926539#0"/>
    <trip id="121" depart="121.00" from="415864934#0" to="94458130#0"/>
    <trip id="122" depart="122.00" from="-8957566#4" to="8952760#2"/>
    <trip id="123" depart="123.00" from="-8960438" to="1115258970"/>
    <trip id="124" depart="124.00" from="8940137#1" to="-8969437#1"/>
    <trip id="125" depart="125.00" from="-8969230#5" to="8957566#6"/>
    <trip id="126" depart="126.00" from="-8934303#4" to="367183821#1"/>
    <trip id="127" depart="127.00" from="966826659#1" to="95908210#2"/>
    <trip id="128" depart="128.00" from="-8934303#4" to="-8958895#4"/>
    <trip id="129" depart="129.00" from="-8961724" to="94458121#0"/>
    <trip id="130" depart="130.00" from="8969974#10" to="8969974#11"/>
    <trip id="131" depart="131.00" from="-95470001#4" to="-8952760#3"/>
    <trip id="132" depart="132.00" from="8963601#0" to="8949819"/>
    <trip id="133" depart="133.00" from="631839350" to="95908207#6"/>
    <trip id="134" depart="134.00" from="8935890#0" to="-241537665#3"/>
    <trip id="135" depart="135.00" from="8962253#1" to="-8969437#0"/>
    <trip id="136" depart="136.00" from="8939139#0" to="95469995#1"/>
    <trip id="137" depart="137.00" from="-8942861#0" to="-8941790#6"/>
    <trip id="138" depart="138.00" from="-8939714#0" to="415865359#0"/>
    <trip id="139" depart="139.00" from="-8962390#1" to="8932439#1"/>
    <trip id="140" depart="140.00" from="8950412#1" to="-8958199#1"/>
    <trip id="141" depart="141.00" from="8934303#3" to="-8962496"/>
    <trip id="142" depart="142.00" from="367183826#0" to="93291795"/>
    <trip id="143" depart="143.00" from="8966508#1" to="-8935867"/>
    <trip id="144" depart="144.00" from="1115258973#1" to="-8966508#1"/>
    <trip id="145" depart="145.00" from="-1115258993#0" to="8958895#4"/>
    <trip id="146" depart="146.00" from="8934606#0" to="-8962413#4"/>
    <trip id="147" depart="147.00" from="8953684#1" to="415865358#2"/>
    <trip id="148" depart="148.00" from="1115258993#0" to="-241541028#0"/>
    <trip id="149" depart="149.00" from="-8934606#1" to="8969974#15"/>
    <trip id="150" depart="150.00" from="93291786#0" to="415865355#1"/>
    <trip id="151" depart="151.00" from="8963601#1" to="614926530"/>
    <trip id="152" depart="152.00" from="-8946760#2" to="-8942860#0"/>
    <trip id="153" depart="153.00" from="-8968595#0" to="93291775#0"/>
    <trip id="154" depart="154.00" from="8960796#3" to="8968595#2"/>
    <trip id="155" depart="155.00" from="93291772#1" to="-8958895#1"/>
    <trip id="156" depart="156.00" from="-8960905#1" to="-8939189"/>
    <trip id="157" depart="157.00" from="8958895#2" to="8969974#2"/>
    <trip id="158" depart="158.00" from="1113372749#2" to="8934606#5"/>
    <trip id="159" depart="159.00" from="-8948541#1" to="94458116#1"/>
    <trip id="160" depart="160.00" from="8969230#1" to="95470008#3"/>
    <trip id="161" depart="161.00" from="8961721#3" to="8969974#13"/>
    <trip id="162" depart="162.00" from="-24178682#6" to="8956031#1"/>
    <trip id="163" depart="163.00" from="-8969974#14" to="94458116#1"/>
    <trip id="164" depart="164.00" from="8961072" to="8969230#3"/>
    <trip id="165" depart="165.00" from="8961721#3" to="-8963601#2"/>
    <trip id="166" depart="166.00" from="8960146#0" to="-8940037#1"/>
    <trip id="167" depart="167.00" from="8969260#2" to="8968595#0"/>
    <trip id="168" depart="168.00" from="-8958895#1" to="8962390#0"/>
    <trip id="169" depart="169.00" from="367173055#1" to="-8969974#0"/>
    <trip id="170" depart="170.00" from="8960796#2" to="-8960796#3"/>
    <trip id="171" depart="171.00" from="-24178682#5" to="-8957566#7"/>
    <trip id="172" depart="172.00" from="-8969974#10" to="8969230#3"/>
    <trip id="173" depart="173.00" from="95470004#1" to="-8967944"/>
    <trip id="174" depart="174.00" from="8934606#2" to="1115258973#1"/>
    <trip id="175" depart="175.00" from="955255094#1" to="415865349"/>
    <trip id="176" depart="176.00" from="95469995#0" to="-8941790#6"/>
    <trip id="177" depart="177.00" from="95470006#3" to="-8956932#0"/>
    <trip id="178" depart="178.00" from="95470002#2" to="-8963601#1"/>
    <trip id="179" depart="179.00" from="-8939714#2" to="285929090#1"/>
    <trip id="180" depart="180.00" from="8952760#7" to="-8969974#4"/>
    <trip id="181" depart="181.00" from="614926539#0" to="415864955#0"/>
    <trip id="182" depart="182.00" from="-95908207#8" to="534871650#1"/>
    <trip id="183" depart="183.00" from="-8961436#2" to="8950412#0"/>
    <trip id="184" depart="184.00" from="-1066782259" to="939319025#1"/>
    <trip id="185" depart="185.00" from="415864958#0" to="8952760#5"/>
    <trip id="186" depart="186.00" from="8955470#0" to="8942564#0"/>
    <trip id="187" depart="187.00" from="-95469998#8" to="-8934300"/>
    <trip id="188" depart="188.00" from="8939139#1" to="-94458130#0"/>
    <trip id="189" depart="189.00" from="-8969230#3" to="8967811#1"/>
    <trip id="190" depart="190.00" from="8952760#0" to="-8969437#1"/>
    <trip id="191" depart="191.00" from="-8968595#1" to="125016714#1"/>
    <trip id="192" depart="192.00" from="1113372748#0" to="-8969230#6"/>
    <trip id="193" depart="193.00" from="-8942499" to="241541029#3"/>
    <trip id="194" depart="194.00" from="95469996#1" to="8942861#0"/>
    <trip id="195" depart="195.00" from="93291784#1" to="8934606#10"/>
    <trip id="196" depart="196.00" from="-8967944" to="415865357#0"/>
    <trip id="197" depart="197.00" from="-1066782258" to="-8968595#0"/>
    <trip id="198" depart="198.00" from="125016702#0" to="614540747#1"/>
    <trip id="199" depart="199.00" from="8935890#0" to="367183826#0"/>
    <trip id="200" depart="200.00" from="241541029#2" to="-8958897"/>
    <trip id="201" depart="201.00" from="367175683#1" to="93291784#1"/>
    <trip id="202" depart="202.00" from="8960796#3" to="-8952775#5"/>
    <trip id="203" depart="203.00" from="-8934606#7" to="415864958#1"/>
    <trip id="204" depart="204.00" from="8934303#2" to="-95469998#10"/>
    <trip id="205" depart="205.00" from="8962253#2" to="8957566#5"/>
    <trip id="206" depart="206.00" from="8940137#2" to="-8960796#0"/>
    <trip id="207" depart="207.00" from="-8957566#13" to="-24178682#6"/>
    <trip id="208" depart="208.00" from="-8960796#3" to="367183847#0"/>
    <trip id="209" depart="209.00" from="8967811#2" to="-8934303#2"/>
    <trip id="210" depart="210.00" from="1114953333#0" to="8935512#2"/>
    <trip id="211" depart="211.00" from="-8957509#1" to="8948170#1"/>
    <trip id="212" depart="212.00" from="367183830#2" to="-8961721#5"/>
    <trip id="213" depart="213.00" from="8935890#2" to="-241537665#0"/>
    <trip id="214" depart="214.00" from="8957566#1" to="8958895#3"/>
    <trip id="215" depart="215.00" from="-8939714#0" to="24178682#12"/>
    <trip id="216" depart="216.00" from="-8952760#6" to="95470001#5"/>
    <trip id="217" depart="217.00" from="394440658#1" to="-415914337#3"/>
    <trip id="218" depart="218.00" from="-8960905#1" to="8967811#2"/>
    <trip id="219" depart="219.00" from="24178682#9" to="8961436#3"/>
    <trip id="220" depart="220.00" from="8939714#2" to="95908207#7"/>
    <trip id="221" depart="221.00" from="517507459#0" to="95469998#8"/>
    <trip id="222" depart="222.00" from="8969974#8" to="8934303#5"/>
    <trip id="223" depart="223.00" from="8951743" to="415864944#1"/>
    <trip id="224" depart="224.00" from="8962413#4" to="415865357#0"/>
    <trip id="225" depart="225.00" from="93291770#1" to="8957566#12"/>
    <trip id="226" depart="226.00" from="367175691#0" to="-8962413#1"/>
    <trip id="227" depart="227.00" from="-8960799#1" to="8937476"/>
    <trip id="228" depart="228.00" from="8957697#1" to="415864969"/>
    <trip id="229" depart="229.00" from="8932439#1" to="-8964592#1"/>
    <trip id="230" depart="230.00" from="-8934606#11" to="-8968565"/>
    <trip id="231" depart="231.00" from="-8962390#0" to="-8970390#0"/>
    <trip id="232" depart="232.00" from="415864958#2" to="-8948170#0"/>
    <trip id="233" depart="233.00" from="-8959248" to="8947513"/>
    <trip id="234" depart="234.00" from="8948541#0" to="-8931648#1"/>
    <trip id="235" depart="235.00" from="1113372750#0" to="415865353#1"/>
    <trip id="236" depart="236.00" from="1114953334#0" to="-8958247#2"/>
    <trip id="237" depart="237.00" from="1115258970" to="93291791"/>
    <trip id="238" depart="238.00" from="415914337#0" to="8948170#1"/>
    <trip id="239" depart="239.00" from="8968544#2" to="8958247#2"/>
    <trip id="240" depart="240.00" from="-95908207#3" to="-241537665#1"/>
    <trip id="241" depart="241.00" from="-94458115#1" to="8957566#8"/>
    <trip id="242" depart="242.00" from="8968264" to="95470001#0"/>
    <trip id="243" depart="243.00" from="1115258969" to="8957566#2"/>
    <trip id="244" depart="244.00" from="415864970#1" to="8931648#1"/>
    <trip id="245" depart="245.00" from="-8958247#3" to="-8960173#0"/>
    <trip id="246" depart="246.00" from="241537665#1" to="-367173067#1"/>
    <trip id="247" depart="247.00" from="-8969974#4" to="8942861#1"/>
    <trip id="248" depart="248.00" from="1113372749#0" to="-8952775#0"/>
    <trip id="249" depart="249.00" from="367173065#1" to="-8942860#0"/>
    <trip id="250" depart="250.00" from="8927929#3" to="-24178682#9"/>
    <trip id="251" depart="251.00" from="1040072872" to="415914337#4"/>
    <trip id="252" depart="252.00" from="-24178682#9" to="8939139#0"/>
    <trip id="253" depart="253.00" from="-8942861#1" to="367183824#0"/>
    <trip id="254" depart="254.00" from="-415914337#4" to="1113372748#0"/>
    <trip id="255" depart="255.00" from="-8957697#2" to="-939319020#4"/>
    <trip id="256" depart="256.00" from="8957566#6" to="1113372748#0"/>
    <trip id="257" depart="257.00" from="8957566#10" to="8963601#2"/>
    <trip id="258" depart="258.00" from="-8961069#2" to="-8934606#3"/>
    <trip id="259" depart="259.00" from="-24178682#12" to="415865351#1"/>
    <trip id="260" depart="260.00" from="968955196" to="-95470006#0"/>
    <trip id="261" depart="261.00" from="8935512#0" to="8960173#2"/>
    <trip id="262" depart="262.00" from="8935512#1" to="8957566#9"/>
    <trip id="263" depart="263.00" from="95469998#7" to="-8957697#3"/>
    <trip id="264" depart="264.00" from="-24178682#2" to="-8950412#1"/>
    <trip id="265" depart="265.00" from="-8942440#1" to="8942440#1"/>
    <trip id="266" depart="266.00" from="415865352" to="-8959190#3"/>
    <trip id="267" depart="267.00" from="8946339#0" to="8958895#0"/>
    <trip id="268" depart="268.00" from="-8951131" to="8934303#0"/>
    <trip id="269" depart="269.00" from="8956932#1" to="-8941790#5"/>
    <trip id="270" depart="270.00" from="8962255#0" to="95470004#0"/>
    <trip id="271" depart="271.00" from="-8939714#2" to="-24178682#7"/>
    <trip id="272" depart="272.00" from="-8969230#1" to="8942861#0"/>
    <trip id="273" depart="273.00" from="95470001#4" to="1115258970"/>
    <trip id="274" depart="274.00" from="8950045#2" to="-8934606#0"/>
    <trip id="275" depart="275.00" from="8942826#1" to="8934978#0"/>
    <trip id="276" depart="276.00" from="-8937680" to="8959190#0"/>
    <trip id="277" depart="277.00" from="8967811#2" to="8928743"/>
    <trip id="278" depart="278.00" from="-8941790#7" to="95908207#3"/>
    <trip id="279" depart="279.00" from="8958897" to="-95470001#4"/>
    <trip id="280" depart="280.00" from="1115258993#1" to="1040072872"/>
    <trip id="281" depart="281.00" from="394438236#0" to="-95469998#8"/>
    <trip id="282" depart="282.00" from="8967811#2" to="8962413#0"/>
    <trip id="283" depart="283.00" from="-8939189" to="95470002#1"/>
    <trip id="284" depart="284.00" from="8934303#5" to="8962496"/>
    <trip id="285" depart="285.00" from="8948541#1" to="367173055#0"/>
    <trip id="286" depart="286.00" from="8952775#2" to="95470004#1"/>
    <trip id="287" depart="287.00" from="-8962255#1" to="8961721#6"/>
    <trip id="288" depart="288.00" from="415864958#0" to="394438238"/>
    <trip id="289" depart="289.00" from="241537665#1" to="8953552#0"/>
    <trip id="290" depart="290.00" from="-8962253#2" to="8967944"/>
    <trip id="291" depart="291.00" from="8962413#4" to="-8934606#8"/>
    <trip id="292" depart="292.00" from="8969974#11" to="-8961721#5"/>
    <trip id="293" depart="293.00" from="367173062#1" to="8934303#3"/>
    <trip id="294" depart="294.00" from="-95908207#2" to="-367173067#0"/>
    <trip id="295" depart="295.00" from="8967811#3" to="-8957566#1"/>
    <trip id="296" depart="296.00" from="-8957697#2" to="8961069#2"/>
    <trip id="297" depart="297.00" from="-8969974#8" to="8969974#12"/>
    <trip id="298" depart="298.00" from="8946760#0" to="-8966508#0"/>
    <trip id="299" depart="299.00" from="-241541028#0" to="95469998#6"/>
    <trip id="300" depart="300.00" from="-8934606#8" to="8952760#6"/>
    <trip id="301" depart="301.00" from="367183826#0" to="8957697#3"/>
    <trip id="302" depart="302.00" from="8942826#1" to="8939714#0"/>
    <trip id="303" depart="303.00" from="367183826#2" to="8960799#1"/>
    <trip id="304" depart="304.00" from="-8935890#0" to="-8960173#2"/>
    <trip id="305" depart="305.00" from="8942826#2" to="-8969974#1"/>
    <trip id="306" depart="306.00" from="415914335#0" to="367183830#4"/>
    <trip id="307" depart="307.00" from="415864947#1" to="24178682#12"/>
    <trip id="308" depart="308.00" from="8956034" to="-94458130#1"/>
    <trip id="309" depart="309.00" from="8946760#1" to="-8964557"/>
    <trip id="310" depart="310.00" from="-8961069#1" to="-8942440#0"/>
    <trip id="311" depart="311.00" from="-8956932#0" to="-8942158#2"/>
    <trip id="312" depart="312.00" from="415864955#0" to="8958199#2"/>
    <trip id="313" depart="313.00" from="-8952775#6" to="-8959190#2"/>
    <trip id="314" depart="314.00" from="367183824#0" to="8952775#1"/>
    <trip id="315" depart="315.00" from="95470008#2" to="415864973#1"/>
    <trip id="316" depart="316.00" from="-8962496" to="-8937477#1"/>
    <trip id="317" depart="317.00" from="-8957509#1" to="-8960796#3"/>
    <trip id="318" depart="318.00" from="-8952775#0" to="-241541029#3"/>
    <trip id="319" depart="319.00" from="415864954#0" to="-8964592#1"/>
    <trip id="320" depart="320.00" from="95470008#0" to="415865359#1"/>
    <trip id="321" depart="321.00" from="8946028#2" to="-8942826#2"/>
    <trip id="322" depart="322.00" from="8969230#5" to="394439253"/>
    <trip id="323" depart="323.00" from="8969437#0" to="517507476"/>
    <trip id="324" depart="324.00" from="367173067#0" to="367173062#1"/>
    <trip id="325" depart="325.00" from="-8952775#5" to="-415914337#4"/>
    <trip id="326" depart="326.00" from="95469996#1" to="367183847#3"/>
    <trip id="327" depart="327.00" from="8962390#1" to="1115258974"/>
    <trip id="328" depart="328.00" from="-8934303#5" to="8935512#2"/>
    <trip id="329" depart="329.00" from="-728212394" to="-8950045#2"/>
    <trip id="330" depart="330.00" from="415865351#1" to="-8969437#5"/>
    <trip id="331" depart="331.00" from="95908210#0" to="-8942158#1"/>
    <trip id="332" depart="332.00" from="8957566#9" to="8933884#1"/>
    <trip id="333" depart="333.00" from="8960173#2" to="-8960796#1"/>
    <trip id="334" depart="334.00" from="415864932" to="367175687#0"/>
    <trip id="335" depart="335.00" from="241541029#3" to="8968595#2"/>
    <trip id="336" depart="336.00" from="95908207#8" to="-8969974#0"/>
    <trip id="337" depart="337.00" from="8927929#2" to="8934303#2"/>
    <trip id="338" depart="338.00" from="8953684#0" to="95469998#6"/>
    <trip id="339" depart="339.00" from="-8957566#8" to="-8958895#2"/>
    <trip id="340" depart="340.00" from="8937476" to="-8952760#2"/>
    <trip id="341" depart="341.00" from="-8952760#4" to="-8934303#5"/>
    <trip id="342" depart="342.00" from="-1115258992" to="367175687#0"/>
    <trip id="343" depart="343.00" from="517506924#1" to="-8969230#2"/>
    <trip id="344" depart="344.00" from="-8960146#0" to="8950045#3"/>
    <trip id="345" depart="345.00" from="8946760#1" to="367175695#0"/>
    <trip id="346" depart="346.00" from="8942440#1" to="939319024#4"/>
    <trip id="347" depart="347.00" from="8960146#0" to="8934606#9"/>
    <trip id="348" depart="348.00" from="8937477#0" to="94458121#0"/>
    <trip id="349" depart="349.00" from="1115258974" to="415865355#0"/>
    <trip id="350" depart="350.00" from="8934606#8" to="93291802#1"/>
    <trip id="351" depart="351.00" from="8962413#0" to="-8934303#1"/>
    <trip id="352" depart="352.00" from="-8950412#1" to="-8969974#11"/>
    <trip id="353" depart="353.00" from="8957509#0" to="517506924#0"/>
    <trip id="354" depart="354.00" from="-8964071" to="-8942826#0"/>
    <trip id="355" depart="355.00" from="8942564#1" to="8949002#1"/>
    <trip id="356" depart="356.00" from="95469998#1" to="415864934#1"/>
    <trip id="357" depart="357.00" from="367183830#2" to="-8934606#12"/>
    <trip id="358" depart="358.00" from="-415864958#2" to="24178682#8"/>
    <trip id="359" depart="359.00" from="-8969437#2" to="-8962255#0"/>
    <trip id="360" depart="360.00" from="-8935512#2" to="95470002#2"/>
    <trip id="361" depart="361.00" from="8963601#2" to="534871649"/>
    <trip id="362" depart="362.00" from="95469998#8" to="968955196"/>
    <trip id="363" depart="363.00" from="8940137#2" to="-8964308#0"/>
    <trip id="364" depart="364.00" from="-415864958#2" to="8957697#1"/>
    <trip id="365" depart="365.00" from="367173067#1" to="8940037#1"/>
    <trip id="366" depart="366.00" from="939319020#4" to="-8957566#0"/>
    <trip id="367" depart="367.00" from="415914337#1" to="8936224#1"/>
    <trip id="368" depart="368.00" from="367183826#3" to="-8935512#1"/>
    <trip id="369" depart="369.00" from="-939319020#2" to="-95469998#0"/>
    <trip id="370" depart="370.00" from="8940037#1" to="8968544#4"/>
    <trip id="371" depart="371.00" from="-8969974#12" to="8947513"/>
    <trip id="372" depart="372.00" from="-8963695#1" to="95469998#3"/>
    <trip id="373" depart="373.00" from="8961721#6" to="415865358#0"/>
    <trip id="374" depart="374.00" from="24178682#7" to="-8969974#5"/>
    <trip id="375" depart="375.00" from="-8969437#3" to="95470006#3"/>
    <trip id="376" depart="376.00" from="1113372749#0" to="415864958#0"/>
    <trip id="377" depart="377.00" from="95908207#6" to="8941790#0"/>
    <trip id="378" depart="378.00" from="415864958#4" to="241537665#3"/>
    <trip id="379" depart="379.00" from="-8953684#1" to="-95908207#7"/>
    <trip id="380" depart="380.00" from="8957566#15" to="8934656"/>
    <trip id="381" depart="381.00" from="8957566#5" to="-8958199#1"/>
    <trip id="382" depart="382.00" from="415864974" to="94458115#1"/>
    <trip id="383" depart="383.00" from="241539885#0" to="8948541#1"/>
    <trip id="384" depart="384.00" from="-8941790#7" to="95470008#0"/>
    <trip id="385" depart="385.00" from="631839346" to="-8961721#1"/>
    <trip id="386" depart="386.00" from="-8949002#3" to="415865358#1"/>
    <trip id="387" depart="387.00" from="415864993#0" to="-8935890#0"/>
    <trip id="388" depart="388.00" from="95908208#1" to="939319020#3"/>
    <trip id="389" depart="389.00" from="367173061#0" to="-8942158#0"/>
    <trip id="390" depart="390.00" from="8962413#5" to="415864932"/>
    <trip id="391" depart="391.00" from="8950412#0" to="415864953"/>
    <trip id="392" depart="392.00" from="-8962390#2" to="8964071"/>
    <trip id="393" depart="393.00" from="955255094#0" to="-8961721#5"/>
    <trip id="394" depart="394.00" from="415864979#1" to="1113372750#0"/>
    <trip id="395" depart="395.00" from="939319024#0" to="415864953"/>
    <trip id="396" depart="396.00" from="8969974#0" to="8969230#3"/>
    <trip id="397" depart="397.00" from="-8962393#1" to="8960796#3"/>
    <trip id="398" depart="398.00" from="1114953333#1" to="94458121#1"/>
    <trip id="399" depart="399.00" from="394438238" to="8962393#0"/>
    <trip id="400" depart="400.00" from="-8962496" to="-8969260#2"/>
    <trip id="401" depart="401.00" from="415914337#3" to="966826659#1"/>
    <trip id="402" depart="402.00" from="367183826#1" to="-8950045#1"/>
    <trip id="403" depart="403.00" from="415864958#0" to="-95470001#2"/>
    <trip id="404" depart="404.00" from="415864993#0" to="415865354"/>
    <trip id="405" depart="405.00" from="24178682#8" to="-8970390#2"/>
    <trip id="406" depart="406.00" from="-8953781" to="8948541#1"/>
    <trip id="407" depart="407.00" from="415865357#0" to="-8961436#0"/>
    <trip id="408" depart="408.00" from="8958247#2" to="-415914334#0"/>
    <trip id="409" depart="409.00" from="8956031#2" to="8950045#2"/>
    <trip id="410" depart="410.00" from="8961721#4" to="1114953331#0"/>
    <trip id="411" depart="411.00" from="8939139#1" to="8962393#0"/>
    <trip id="412" depart="412.00" from="955255094#1" to="394440659#0"/>
    <trip id="413" depart="413.00" from="-415864953" to="415864941#0"/>
    <trip id="414" depart="414.00" from="438359621#1" to="8969260#2"/>
    <trip id="415" depart="415.00" from="8969437#1" to="367173062#1"/>
    <trip id="416" depart="416.00" from="415864941#0" to="367175706#1"/>
    <trip id="417" depart="417.00" from="8952760#11" to="125016714#2"/>
    <trip id="418" depart="418.00" from="8935890#1" to="-8952760#1"/>
    <trip id="419" depart="419.00" from="367173067#0" to="95470006#2"/>
    <trip id="420" depart="420.00" from="-8969974#7" to="8947075"/>
    <trip id="421" depart="421.00" from="8934978#0" to="8967944"/>